  
       XFOIL         Version 6.97
  
 Calculated polar for: H15+20                                          
  
 1 1 Reynolds number fixed          Mach number fixed         
  
 xtrf =   1.000 (top)        0.920 (bottom)  
 Mach =   0.000     Re =     0.700 e 6     Ncrit =   9.000
  
   alpha    CL        CD       CDp       CM     Top_Xtr  Bot_Xtr
  ------ -------- --------- --------- -------- -------- --------
  -9.500   0.1949   0.02605   0.02208  -0.2034   0.7861   0.0197
  -9.000   0.2664   0.01401   0.00838  -0.2109   0.7835   0.0103
  -8.000   0.3879   0.01170   0.00574  -0.2149   0.7783   0.0140
  -7.000   0.5091   0.01055   0.00454  -0.2183   0.7724   0.0369
  -6.000   0.6325   0.00943   0.00414  -0.2228   0.7664   0.3187
  -5.500   0.6914   0.00902   0.00411  -0.2241   0.7632   0.4676
  -5.000   0.7492   0.00891   0.00415  -0.2249   0.7595   0.5480
  -4.500   0.8068   0.00891   0.00422  -0.2255   0.7559   0.6077
  -4.000   0.8648   0.00904   0.00433  -0.2262   0.7525   0.6425
  -3.500   0.9200   0.00910   0.00445  -0.2263   0.7483   0.6684
  -3.000   0.9754   0.00918   0.00456  -0.2264   0.7438   0.6898
  -2.500   1.0319   0.00925   0.00461  -0.2266   0.7395   0.7072
  -2.000   1.0863   0.00939   0.00480  -0.2266   0.7348   0.7208
  -1.500   1.1397   0.00947   0.00493  -0.2262   0.7290   0.7326
  -1.000   1.1952   0.00956   0.00500  -0.2263   0.7238   0.7434
  -0.500   1.2451   0.00970   0.00524  -0.2252   0.7168   0.7512
   0.000   1.2979   0.00977   0.00533  -0.2247   0.7099   0.7590
   0.500   1.3440   0.00992   0.00559  -0.2229   0.6998   0.7645
   1.000   1.3910   0.01006   0.00578  -0.2212   0.6888   0.7726
   1.500   1.4337   0.01029   0.00609  -0.2187   0.6757   0.7761
   2.000   1.4706   0.01056   0.00642  -0.2150   0.6588   0.7819
   2.500   1.5086   0.01103   0.00688  -0.2118   0.6340   0.7882
   3.000   1.5412   0.01175   0.00754  -0.2075   0.5993   0.7925
   3.500   1.5652   0.01295   0.00853  -0.2018   0.5492   0.7988
   4.000   1.5850   0.01441   0.00980  -0.1956   0.4975   0.8038
   4.500   1.5989   0.01618   0.01135  -0.1886   0.4430   0.8082
   5.000   1.6091   0.01830   0.01324  -0.1812   0.3875   0.8140
   5.500   1.6153   0.02076   0.01546  -0.1737   0.3309   0.8183
   6.000   1.6170   0.02366   0.01806  -0.1660   0.2674   0.8222
   6.500   1.6149   0.02725   0.02133  -0.1586   0.2063   0.8268
   7.000   1.6192   0.03105   0.02487  -0.1530   0.1556   0.8311
   7.500   1.6268   0.03457   0.02823  -0.1481   0.1164   0.8343
   8.000   1.6326   0.03834   0.03183  -0.1433   0.0816   0.8379
   8.500   1.6408   0.04202   0.03541  -0.1390   0.0570   0.8416
   9.000   1.6516   0.04563   0.03900  -0.1351   0.0420   0.8446
   9.500   1.6627   0.04923   0.04264  -0.1316   0.0317   0.8475
  10.000   1.6727   0.05300   0.04645  -0.1282   0.0235   0.8505
  10.500   1.6755   0.05765   0.05110  -0.1246   0.0122   0.8535
  11.000   1.6681   0.06359   0.05706  -0.1207   0.0042   0.8560
  11.500   1.6694   0.06889   0.06255  -0.1177   0.0032   0.8579
  12.000   1.6731   0.07408   0.06793  -0.1155   0.0028   0.8606
  12.500   1.6730   0.07987   0.07393  -0.1135   0.0025   0.8627
  13.000   1.6681   0.08644   0.08072  -0.1118   0.0023   0.8644
  13.500   1.6549   0.09434   0.08886  -0.1105   0.0021   0.8661
  14.000   1.6443   0.10216   0.09692  -0.1101   0.0020   0.8679
  14.500   1.6350   0.11006   0.10506  -0.1104   0.0019   0.8694
  15.000   1.6233   0.11848   0.11372  -0.1114   0.0019   0.8705
  15.500   1.6103   0.12737   0.12284  -0.1133   0.0018   0.8715
  16.000   1.5967   0.13663   0.13234  -0.1161   0.0017   0.8725
  16.500   1.5831   0.14619   0.14215  -0.1197   0.0017   0.8738
  17.000   1.5692   0.15603   0.15222  -0.1243   0.0016   0.8750
  17.500   1.5557   0.16618   0.16259  -0.1296   0.0015   0.8760
  18.000   1.5427   0.17655   0.17319  -0.1358   0.0015   0.8770
  18.500   1.5304   0.18713   0.18398  -0.1426   0.0014   0.8783
  19.000   1.5189   0.19787   0.19493  -0.1501   0.0014   0.8796
  19.500   1.5082   0.20869   0.20595  -0.1580   0.0014   0.8805
  20.000   1.4985   0.21958   0.21704  -0.1664   0.0014   0.8813
  20.500   1.4895   0.23077   0.22842  -0.1752   0.0013   0.8821
  21.000   1.4813   0.24223   0.24007  -0.1844   0.0013   0.8828
  21.500   1.4734   0.25419   0.25223  -0.1942   0.0013   0.8835
  22.000   1.4641   0.26750   0.26575  -0.2050   0.0013   0.8841
  22.500   1.4475   0.28597   0.28452  -0.2196   0.0014   0.8845
 
  
