  
       XFOIL         Version 6.97
  
 Calculated polar for: H15+20                                          
  
 1 1 Reynolds number fixed          Mach number fixed         
  
 xtrf =   1.000 (top)        0.920 (bottom)  
 Mach =   0.000     Re =     0.300 e 6     Ncrit =   9.000
  
   alpha    CL        CD       CDp       CM     Top_Xtr  Bot_Xtr
  ------ -------- --------- --------- -------- -------- --------
 -12.000   0.1304   0.06831   0.06528  -0.1419   0.8765   0.0327
 -11.000   0.1257   0.05675   0.05377  -0.1418   0.8515   0.0365
 -10.500   0.1147   0.04718   0.04420  -0.1487   0.8477   0.0389
 -10.000   0.1112   0.03518   0.03188  -0.1664   0.8434   0.0392
  -9.000   0.1898   0.03255   0.02842  -0.1946   0.8415   0.0451
  -8.500   0.2769   0.02499   0.01993  -0.2070   0.8397   0.0547
  -8.000   0.3642   0.01566   0.00908  -0.2120   0.8378   0.0257
  -7.500   0.4342   0.01372   0.00694  -0.2155   0.8348   0.0329
  -7.000   0.4964   0.01281   0.00600  -0.2178   0.8298   0.0563
  -6.500   0.5675   0.01134   0.00529  -0.2229   0.8257   0.3014
  -6.000   0.6323   0.01110   0.00548  -0.2256   0.8214   0.5088
  -5.500   0.6842   0.01152   0.00601  -0.2252   0.8159   0.5911
  -5.000   0.7398   0.01207   0.00656  -0.2251   0.8107   0.6471
  -4.500   0.7920   0.01277   0.00722  -0.2244   0.8053   0.6798
  -4.000   0.8414   0.01349   0.00794  -0.2231   0.7994   0.7004
  -3.500   0.8945   0.01428   0.00867  -0.2224   0.7939   0.7169
  -3.000   0.9396   0.01499   0.00943  -0.2204   0.7870   0.7309
  -2.500   0.9949   0.01559   0.00996  -0.2202   0.7813   0.7438
  -2.000   1.0391   0.01626   0.01070  -0.2182   0.7735   0.7569
  -1.500   1.0927   0.01663   0.01106  -0.2175   0.7674   0.7662
  -1.000   1.1358   0.01713   0.01165  -0.2154   0.7588   0.7774
  -0.500   1.1949   0.01720   0.01170  -0.2160   0.7528   0.7891
   0.000   1.2390   0.01753   0.01217  -0.2140   0.7430   0.8012
   0.500   1.2948   0.01732   0.01199  -0.2139   0.7363   0.8107
   1.000   1.3428   0.01721   0.01199  -0.2125   0.7262   0.8212
   1.500   1.3910   0.01709   0.01198  -0.2112   0.7153   0.8321
   2.000   1.4396   0.01661   0.01162  -0.2097   0.7039   0.8423
   2.500   1.4854   0.01620   0.01132  -0.2077   0.6907   0.8526
   3.000   1.5233   0.01592   0.01117  -0.2043   0.6737   0.8624
   3.500   1.5580   0.01567   0.01097  -0.2002   0.6528   0.8712
   4.000   1.5852   0.01597   0.01136  -0.1951   0.6240   0.8795
   4.500   1.6081   0.01674   0.01209  -0.1892   0.5835   0.8871
   5.000   1.6264   0.01794   0.01314  -0.1829   0.5355   0.8946
   6.000   1.6368   0.02233   0.01719  -0.1670   0.4310   0.9094
   7.000   1.6286   0.02926   0.02378  -0.1514   0.3233   0.9200
   7.500   1.6239   0.03383   0.02815  -0.1453   0.2677   0.9200
   8.000   1.6193   0.03861   0.03270  -0.1397   0.2145   0.9200
   8.500   1.6137   0.04364   0.03749  -0.1344   0.1639   0.9200
   9.000   1.6084   0.04881   0.04245  -0.1295   0.1188   0.9200
   9.500   1.6030   0.05421   0.04766  -0.1251   0.0842   0.9200
  10.000   1.6022   0.05937   0.05277  -0.1215   0.0620   0.9200
  10.500   1.6025   0.06467   0.05811  -0.1183   0.0479   0.9200
  11.000   1.6040   0.07005   0.06359  -0.1157   0.0387   0.9200
  11.500   1.6078   0.07530   0.06900  -0.1135   0.0309   0.9200
  12.000   1.6027   0.08181   0.07559  -0.1114   0.0212   0.9200
  12.500   1.5871   0.08995   0.08385  -0.1097   0.0120   0.9200
  13.000   1.5710   0.09854   0.09269  -0.1087   0.0095   0.9200
  13.500   1.5593   0.10680   0.10120  -0.1087   0.0083   0.9200
  14.000   1.5369   0.11680   0.11143  -0.1097   0.0076   0.9200
  14.500   1.5292   0.12486   0.11977  -0.1110   0.0071   0.9200
  15.000   1.5223   0.13296   0.12812  -0.1129   0.0066   0.9200
  15.500   1.5163   0.14113   0.13652  -0.1157   0.0060   0.9200
  16.000   1.5090   0.14962   0.14520  -0.1192   0.0056   0.9200
  16.500   1.4996   0.15826   0.15402  -0.1229   0.0052   0.9200
  17.000   1.4941   0.16661   0.16264  -0.1270   0.0051   0.9200
  17.500   1.4882   0.17561   0.17194  -0.1322   0.0049   0.9200
  18.000   1.4799   0.18551   0.18216  -0.1387   0.0048   0.9200
  18.500   1.4687   0.19661   0.19358  -0.1465   0.0048   0.9200
  19.000   1.4545   0.20923   0.20656  -0.1561   0.0048   0.9200
  19.500   1.4370   0.22395   0.22160  -0.1678   0.0048   0.9200
  20.000   1.4152   0.24183   0.23980  -0.1821   0.0049   0.9200
