  
       XFOIL         Version 6.97
  
 Calculated polar for: H15                                             
  
 1 1 Reynolds number fixed          Mach number fixed         
  
 xtrf =   1.000 (top)        1.000 (bottom)  
 Mach =   0.000     Re =     0.700 e 6     Ncrit =   9.000
  
   alpha    CL        CD       CDp       CM     Top_Xtr  Bot_Xtr
  ------ -------- --------- --------- -------- -------- --------
  -7.000  -0.4550   0.01423   0.00822  -0.0519   0.7879   0.0122
  -6.750  -0.4290   0.01374   0.00764  -0.0516   0.7826   0.0130
  -6.500  -0.4022   0.01326   0.00709  -0.0515   0.7769   0.0140
  -6.250  -0.3757   0.01274   0.00647  -0.0512   0.7713   0.0151
  -6.000  -0.3500   0.01216   0.00581  -0.0509   0.7662   0.0169
  -5.750  -0.3223   0.01183   0.00543  -0.0509   0.7604   0.0188
  -5.500  -0.2958   0.01133   0.00488  -0.0507   0.7550   0.0217
  -5.250  -0.2680   0.01113   0.00462  -0.0507   0.7498   0.0247
  -5.000  -0.2409   0.01071   0.00421  -0.0507   0.7442   0.0298
  -4.750  -0.2136   0.01041   0.00387  -0.0506   0.7389   0.0358
  -4.500  -0.1857   0.01018   0.00361  -0.0506   0.7335   0.0425
  -4.250  -0.1579   0.00993   0.00337  -0.0507   0.7279   0.0510
  -4.000  -0.1304   0.00971   0.00314  -0.0506   0.7228   0.0620
  -3.750  -0.1024   0.00948   0.00295  -0.0507   0.7172   0.0741
  -3.500  -0.0745   0.00928   0.00277  -0.0508   0.7119   0.0879
  -3.000  -0.0187   0.00891   0.00247  -0.0510   0.7012   0.1248
  -2.750   0.0092   0.00876   0.00235  -0.0511   0.6958   0.1469
  -2.500   0.0370   0.00860   0.00225  -0.0511   0.6907   0.1718
  -2.250   0.0651   0.00844   0.00215  -0.0513   0.6850   0.1974
  -2.000   0.0930   0.00832   0.00205  -0.0514   0.6798   0.2245
  -1.750   0.1207   0.00813   0.00198  -0.0515   0.6745   0.2604
  -1.500   0.1480   0.00788   0.00189  -0.0515   0.6689   0.3168
  -1.250   0.1733   0.00748   0.00181  -0.0513   0.6639   0.4290
  -0.750   0.2156   0.00621   0.00177  -0.0487   0.6535   0.7958
  -0.500   0.2406   0.00607   0.00186  -0.0477   0.6485   0.8836
  -0.250   0.2711   0.00611   0.00196  -0.0479   0.6428   0.9294
   0.000   0.2999   0.00620   0.00201  -0.0479   0.6373   0.9517
   0.250   0.3319   0.00633   0.00208  -0.0486   0.6321   0.9659
   0.500   0.3720   0.00642   0.00213  -0.0512   0.6263   0.9727
   0.750   0.4069   0.00653   0.00217  -0.0526   0.6209   0.9800
   1.000   0.4503   0.00659   0.00219  -0.0561   0.6152   0.9829
   1.250   0.4914   0.00665   0.00221  -0.0590   0.6090   0.9871
   1.500   0.5359   0.00675   0.00224  -0.0627   0.6032   0.9930
   1.750   0.5893   0.00677   0.00224  -0.0684   0.5968   0.9991
   2.000   0.6205   0.00683   0.00225  -0.0693   0.5910   1.0000
   2.250   0.6477   0.00685   0.00227  -0.0694   0.5851   1.0000
   2.500   0.6747   0.00691   0.00229  -0.0694   0.5788   1.0000
   2.750   0.7015   0.00697   0.00233  -0.0694   0.5726   1.0000
   3.000   0.7282   0.00702   0.00237  -0.0694   0.5657   1.0000
   3.250   0.7546   0.00710   0.00242  -0.0693   0.5592   1.0000
   3.500   0.7810   0.00716   0.00249  -0.0692   0.5523   1.0000
   3.750   0.8070   0.00727   0.00256  -0.0690   0.5456   1.0000
   4.000   0.8332   0.00733   0.00263  -0.0688   0.5380   1.0000
   4.250   0.8588   0.00745   0.00272  -0.0686   0.5307   1.0000
   4.500   0.8846   0.00753   0.00282  -0.0684   0.5224   1.0000
   4.750   0.9100   0.00764   0.00292  -0.0681   0.5141   1.0000
   5.000   0.9351   0.00776   0.00303  -0.0677   0.5052   1.0000
   5.250   0.9603   0.00788   0.00317  -0.0674   0.4969   1.0000
   5.500   0.9848   0.00803   0.00330  -0.0669   0.4886   1.0000
   5.750   1.0097   0.00815   0.00345  -0.0666   0.4796   1.0000
   6.000   1.0337   0.00832   0.00360  -0.0660   0.4692   1.0000
   6.250   1.0572   0.00851   0.00378  -0.0654   0.4585   1.0000
   6.500   1.0809   0.00868   0.00396  -0.0648   0.4467   1.0000
   6.750   1.1039   0.00889   0.00416  -0.0641   0.4330   1.0000
   7.000   1.1256   0.00916   0.00439  -0.0632   0.4160   1.0000
   7.250   1.1468   0.00945   0.00464  -0.0622   0.3953   1.0000
   7.500   1.1655   0.00987   0.00495  -0.0609   0.3672   1.0000
   7.750   1.1822   0.01042   0.00534  -0.0592   0.3332   1.0000
   8.000   1.1973   0.01106   0.00581  -0.0574   0.2983   1.0000
   8.250   1.2113   0.01180   0.00637  -0.0554   0.2598   1.0000
   8.500   1.2232   0.01267   0.00701  -0.0533   0.2198   1.0000
   8.750   1.2348   0.01355   0.00770  -0.0512   0.1856   1.0000
   9.000   1.2466   0.01436   0.00837  -0.0492   0.1590   1.0000
   9.250   1.2568   0.01515   0.00906  -0.0469   0.1369   1.0000
   9.500   1.2666   0.01605   0.00986  -0.0447   0.1176   1.0000
   9.750   1.2776   0.01696   0.01071  -0.0429   0.0999   1.0000
  10.000   1.2872   0.01802   0.01168  -0.0412   0.0825   1.0000
  10.250   1.2962   0.01917   0.01276  -0.0394   0.0668   1.0000
  10.500   1.3048   0.02040   0.01392  -0.0378   0.0525   1.0000
  10.750   1.3119   0.02179   0.01525  -0.0362   0.0397   1.0000
  11.000   1.3174   0.02335   0.01675  -0.0346   0.0280   1.0000
  11.250   1.3197   0.02523   0.01856  -0.0328   0.0172   1.0000
  11.500   1.3226   0.02712   0.02046  -0.0312   0.0114   1.0000
  11.750   1.3263   0.02902   0.02240  -0.0298   0.0092   1.0000
  12.000   1.3347   0.03054   0.02400  -0.0288   0.0083   1.0000
  12.250   1.3416   0.03223   0.02575  -0.0279   0.0077   1.0000
  12.500   1.3461   0.03417   0.02776  -0.0268   0.0072   1.0000
  12.750   1.3466   0.03651   0.03019  -0.0257   0.0068   1.0000
  13.000   1.3494   0.03869   0.03247  -0.0248   0.0066   1.0000
  13.250   1.3537   0.04079   0.03465  -0.0241   0.0065   1.0000
  13.500   1.3569   0.04305   0.03700  -0.0235   0.0063   1.0000
  13.750   1.3593   0.04547   0.03952  -0.0229   0.0061   1.0000
  14.000   1.3609   0.04804   0.04218  -0.0225   0.0060   1.0000
  14.250   1.3616   0.05074   0.04498  -0.0222   0.0059   1.0000
  14.500   1.3618   0.05359   0.04792  -0.0219   0.0057   1.0000
  14.750   1.3613   0.05658   0.05101  -0.0218   0.0056   1.0000
  15.000   1.3599   0.05972   0.05423  -0.0217   0.0055   1.0000
  15.250   1.3579   0.06302   0.05762  -0.0218   0.0054   1.0000
  15.500   1.3550   0.06649   0.06118  -0.0220   0.0053   1.0000
  15.750   1.3511   0.07014   0.06493  -0.0223   0.0052   1.0000
  16.000   1.3460   0.07400   0.06889  -0.0227   0.0051   1.0000
  16.250   1.3399   0.07809   0.07307  -0.0233   0.0051   1.0000
  16.500   1.3328   0.08238   0.07746  -0.0240   0.0050   1.0000
  16.750   1.3247   0.08682   0.08200  -0.0247   0.0049   1.0000
  17.000   1.3160   0.09139   0.08668  -0.0255   0.0049   1.0000
  17.250   1.3071   0.09603   0.09142  -0.0264   0.0048   1.0000
  17.500   1.2981   0.10063   0.09613  -0.0272   0.0048   1.0000
  17.750   1.2938   0.10481   0.10042  -0.0283   0.0047   1.0000
  18.000   1.2896   0.10906   0.10478  -0.0296   0.0047   1.0000
  18.250   1.2851   0.11340   0.10923  -0.0310   0.0047   1.0000
  18.500   1.2805   0.11781   0.11374  -0.0325   0.0047   1.0000
  18.750   1.2756   0.12230   0.11834  -0.0341   0.0046   1.0000
  19.000   1.2705   0.12690   0.12305  -0.0359   0.0046   1.0000
  19.250   1.2651   0.13165   0.12791  -0.0379   0.0046   1.0000
  19.500   1.2595   0.13650   0.13287  -0.0401   0.0046   1.0000
  19.750   1.2537   0.14148   0.13797  -0.0425   0.0046   1.0000
  20.000   1.2475   0.14660   0.14320  -0.0450   0.0046   1.0000
  20.250   1.2409   0.15191   0.14863  -0.0478   0.0046   1.0000
  20.500   1.2340   0.15744   0.15429  -0.0509   0.0046   1.0000
  20.750   1.2268   0.16322   0.16018  -0.0543   0.0046   1.0000
  21.000   1.2191   0.16925   0.16634  -0.0580   0.0046   1.0000
  21.250   1.2110   0.17557   0.17278  -0.0620   0.0046   1.0000
  21.500   1.2022   0.18220   0.17953  -0.0663   0.0046   1.0000
  21.750   1.1927   0.18923   0.18669  -0.0709   0.0046   1.0000
  22.000   1.1825   0.19671   0.19430  -0.0760   0.0046   1.0000
  22.250   1.1708   0.20502   0.20274  -0.0815   0.0046   1.0000
  22.500   1.1565   0.21453   0.21238  -0.0879   0.0047   1.0000
  