  
       XFOIL         Version 6.97
  
 Calculated polar for: H15                                             
  
 1 1 Reynolds number fixed          Mach number fixed         
  
 xtrf =   1.000 (top)        0.920 (bottom)  
 Mach =   0.000     Re =     0.300 e 6     Ncrit =   9.000
  
   alpha    CL        CD       CDp       CM     Top_Xtr  Bot_Xtr
  ------ -------- --------- --------- -------- -------- --------
  -4.000  -0.1105   0.01313   0.00572  -0.0568   0.7788   0.0904
  -3.800  -0.0892   0.01285   0.00546  -0.0567   0.7737   0.1037
  -3.600  -0.0683   0.01256   0.00519  -0.0565   0.7696   0.1190
  -3.400  -0.0473   0.01231   0.00498  -0.0562   0.7658   0.1365
  -3.200  -0.0257   0.01209   0.00483  -0.0562   0.7605   0.1567
  -3.000  -0.0042   0.01189   0.00465  -0.0561   0.7560   0.1791
  -2.800   0.0168   0.01169   0.00447  -0.0558   0.7524   0.2033
  -2.600   0.0384   0.01148   0.00436  -0.0559   0.7474   0.2296
  -2.400   0.0595   0.01125   0.00422  -0.0557   0.7428   0.2613
  -2.200   0.0800   0.01096   0.00406  -0.0555   0.7389   0.3055
  -2.000   0.0992   0.01055   0.00395  -0.0551   0.7346   0.3886
  -1.800   0.1141   0.00981   0.00387  -0.0539   0.7296   0.5601
  -1.600   0.1262   0.00907   0.00390  -0.0513   0.7255   0.7699
  -1.400   0.1544   0.00899   0.00406  -0.0515   0.7222   0.8846
  -1.200   0.1839   0.00910   0.00415  -0.0526   0.7170   0.9200
  -1.000   0.2072   0.00910   0.00405  -0.0529   0.7125   0.9200
  -0.800   0.2304   0.00912   0.00393  -0.0531   0.7087   0.9200
  -0.600   0.2537   0.00915   0.00389  -0.0534   0.7039   0.9200
  -0.400   0.2768   0.00917   0.00384  -0.0537   0.6991   0.9200
  -0.200   0.2999   0.00920   0.00377  -0.0539   0.6952   0.9200
   0.000   0.3229   0.00925   0.00374  -0.0541   0.6911   0.9200
   0.200   0.3458   0.00928   0.00373  -0.0544   0.6861   0.9200
   0.400   0.3687   0.00931   0.00369  -0.0545   0.6817   0.9200
   0.600   0.3915   0.00937   0.00365  -0.0546   0.6779   0.9200
   0.800   0.4142   0.00942   0.00369  -0.0549   0.6726   0.9200
   1.000   0.4369   0.00946   0.00368  -0.0550   0.6680   0.9200
   1.200   0.4597   0.00952   0.00365  -0.0552   0.6643   0.9200
   1.400   0.4822   0.00958   0.00371  -0.0554   0.6593   0.9200
   1.600   0.5048   0.00964   0.00373  -0.0555   0.6545   0.9200
   1.800   0.5275   0.00969   0.00372  -0.0556   0.6505   0.9200
   2.000   0.5499   0.00977   0.00379  -0.0558   0.6458   0.9200
   2.200   0.5723   0.00983   0.00384  -0.0559   0.6405   0.9200
   2.400   0.5948   0.00989   0.00385  -0.0560   0.6362   0.9200
   2.600   0.6172   0.00998   0.00392  -0.0561   0.6316   0.9200
   2.800   0.6394   0.01005   0.00400  -0.0562   0.6264   0.9200
   3.000   0.6618   0.01012   0.00403  -0.0563   0.6220   0.9200
   3.200   0.6841   0.01022   0.00411  -0.0564   0.6174   0.9200
   3.400   0.7061   0.01029   0.00421  -0.0565   0.6119   0.9200
   3.600   0.7284   0.01036   0.00424  -0.0566   0.6071   0.9200
   4.000   0.7722   0.01054   0.00444  -0.0567   0.5961   0.9200
   4.200   0.7944   0.01062   0.00448  -0.0568   0.5912   0.9200
   4.400   0.8160   0.01071   0.00462  -0.0568   0.5852   0.9200
   4.600   0.8378   0.01079   0.00472  -0.0568   0.5795   0.9200
   4.800   0.8597   0.01090   0.00480  -0.0568   0.5742   0.9200
   5.000   0.8810   0.01098   0.00493  -0.0568   0.5673   0.9200
   5.200   0.9028   0.01108   0.00499  -0.0568   0.5617   0.9200
   5.400   0.9238   0.01117   0.00515  -0.0567   0.5544   0.9200
   5.600   0.9451   0.01127   0.00524  -0.0567   0.5478   0.9200
   5.800   0.9659   0.01137   0.00540  -0.0565   0.5402   0.9200
   6.000   0.9869   0.01148   0.00549  -0.0564   0.5332   0.9200
   6.200   1.0074   0.01159   0.00567  -0.0563   0.5255   0.9200
   6.400   1.0282   0.01172   0.00580  -0.0561   0.5184   0.9200
   6.600   1.0485   0.01185   0.00600  -0.0559   0.5103   0.9200
   6.800   1.0689   0.01199   0.00613  -0.0557   0.5025   0.9200
   7.000   1.0885   0.01212   0.00634  -0.0554   0.4926   0.9200
   7.200   1.1081   0.01228   0.00653  -0.0551   0.4832   0.9200
   7.600   1.1461   0.01263   0.00693  -0.0544   0.4614   0.9200
   7.800   1.1643   0.01283   0.00717  -0.0539   0.4483   0.9200
   8.000   1.1818   0.01306   0.00742  -0.0533   0.4341   0.9200
   8.200   1.1986   0.01334   0.00770  -0.0526   0.4184   0.9200
   8.400   1.2141   0.01368   0.00801  -0.0517   0.4004   0.9200
   8.600   1.2289   0.01405   0.00837  -0.0508   0.3795   0.9200
   8.800   1.2414   0.01455   0.00880  -0.0495   0.3568   0.9200
   9.000   1.2524   0.01512   0.00929  -0.0481   0.3313   0.9200
   9.200   1.2604   0.01584   0.00990  -0.0463   0.3032   0.9200
   9.400   1.2642   0.01669   0.01060  -0.0440   0.2745   0.9200
   9.600   1.2666   0.01770   0.01147  -0.0417   0.2458   0.9200
   9.800   1.2686   0.01884   0.01247  -0.0396   0.2181   0.9200
  10.000   1.2709   0.02005   0.01354  -0.0377   0.1923   0.9200
  10.200   1.2731   0.02132   0.01470  -0.0360   0.1693   0.9200
  10.400   1.2759   0.02263   0.01589  -0.0345   0.1481   0.9200
  10.600   1.2786   0.02399   0.01716  -0.0330   0.1299   0.9200
  10.800   1.2823   0.02531   0.01843  -0.0318   0.1134   0.9200
  11.000   1.2856   0.02672   0.01977  -0.0306   0.0982   0.9200
  11.200   1.2880   0.02822   0.02122  -0.0294   0.0837   0.9200
  11.400   1.2891   0.02987   0.02280  -0.0282   0.0698   0.9200
  11.600   1.2889   0.03168   0.02453  -0.0271   0.0567   0.9200
  11.800   1.2878   0.03360   0.02640  -0.0259   0.0446   0.9200
  12.000   1.2847   0.03576   0.02854  -0.0247   0.0346   0.9200
  12.200   1.2795   0.03817   0.03093  -0.0235   0.0277   0.9200
  12.400   1.2765   0.04044   0.03322  -0.0226   0.0233   0.9200
  12.600   1.2723   0.04288   0.03573  -0.0216   0.0207   0.9200
  12.800   1.2721   0.04500   0.03792  -0.0210   0.0189   0.9200
  13.000   1.2694   0.04742   0.04039  -0.0204   0.0177   0.9200
  13.200   1.2615   0.05045   0.04348  -0.0198   0.0167   0.9200
  13.400   1.2602   0.05284   0.04597  -0.0194   0.0161   0.9200
  13.600   1.2601   0.05516   0.04838  -0.0191   0.0155   0.9200
  13.800   1.2593   0.05757   0.05088  -0.0188   0.0150   0.9200
  14.000   1.2585   0.06000   0.05339  -0.0186   0.0145   0.9200
  14.200   1.2579   0.06246   0.05591  -0.0185   0.0140   0.9200
  14.400   1.2572   0.06496   0.05847  -0.0185   0.0136   0.9200
  14.600   1.2554   0.06760   0.06116  -0.0185   0.0132   0.9200
  14.800   1.2519   0.07039   0.06400  -0.0183   0.0129   0.9200
  15.000   1.2470   0.07322   0.06687  -0.0179   0.0125   0.9200
  15.200   1.2486   0.07556   0.06932  -0.0179   0.0122   0.9200
  15.400   1.2501   0.07791   0.07176  -0.0180   0.0120   0.9200
  15.600   1.2509   0.08031   0.07426  -0.0180   0.0117   0.9200
  15.800   1.2518   0.08269   0.07673  -0.0180   0.0116   0.9200
  16.000   1.2525   0.08512   0.07924  -0.0180   0.0114   0.9200
  16.200   1.2530   0.08759   0.08181  -0.0181   0.0112   0.9200
  16.400   1.2535   0.09010   0.08442  -0.0182   0.0110   0.9200
  16.600   1.2535   0.09271   0.08712  -0.0184   0.0109   0.9200
  16.800   1.2531   0.09539   0.08990  -0.0187   0.0108   0.9200
  17.000   1.2520   0.09825   0.09287  -0.0191   0.0107   0.9200
  17.200   1.2504   0.10122   0.09595  -0.0196   0.0105   0.9200
  17.400   1.2481   0.10436   0.09920  -0.0203   0.0105   0.9200
  17.600   1.2453   0.10764   0.10260  -0.0211   0.0104   0.9200
  17.800   1.2415   0.11112   0.10620  -0.0221   0.0103   0.9200
  18.000   1.2370   0.11478   0.10999  -0.0233   0.0103   0.9200
  18.200   1.2318   0.11867   0.11402  -0.0247   0.0102   0.9200
  18.400   1.2256   0.12284   0.11832  -0.0264   0.0102   0.9200
  18.600   1.2185   0.12727   0.12290  -0.0283   0.0102   0.9200
  18.800   1.2105   0.13199   0.12776  -0.0306   0.0102   0.9200
  19.000   1.2010   0.13712   0.13305  -0.0332   0.0102   0.9200
  19.200   1.1893   0.14297   0.13907  -0.0364   0.0103   0.9200
  19.400   1.1757   0.14948   0.14576  -0.0402   0.0104   0.9200
  19.600   1.1605   0.15667   0.15313  -0.0446   0.0105   0.9200
  19.800   1.1436   0.16468   0.16133  -0.0497   0.0107   0.9200
  20.000   1.1250   0.17360   0.17042  -0.0555   0.0109   0.9200
  20.200   1.1037   0.18389   0.18088  -0.0622   0.0111   0.9200
  20.400   1.0766   0.19706   0.19420  -0.0706   0.0115   0.9200
  20.600   1.0461   0.21298   0.21018  -0.0799   0.0122   0.9200
  21.200   0.6923   0.21658   0.21395  -0.0501   0.0294   0.9200
