  
       XFOIL         Version 6.99
  
 Calculated polar for: wxtail-10                                       
  
 1 1 Reynolds number fixed          Mach number fixed         
  
 xtrf =   1.000 (top)        1.000 (bottom)  
 Mach =   0.000     Re =     1.500 e 6     Ncrit =   9.000  9.000
  
   alpha    CL        CD       CDp       CM     Top_Xtr  Bot_Xtr  Top_Itr  Bot_Itr
  ------ -------- --------- --------- -------- -------- -------- -------- --------
 -15.000  -1.2871   0.11638   0.08786   0.0512   0.6790   0.0132  20.4708  53.6450
 -14.800  -1.3107   0.10882   0.07937   0.0471   0.6788   0.0131  20.4781  53.6339
 -14.600  -1.3318   0.10198   0.07198   0.0437   0.6785   0.0130  20.4881  53.6225
 -14.400  -1.3507   0.09579   0.06554   0.0411   0.6782   0.0129  20.5002  53.6109
 -14.200  -1.3681   0.09004   0.05978   0.0390   0.6778   0.0128  20.5138  53.6001
 -14.000  -1.3826   0.08494   0.05484   0.0374   0.6774   0.0128  20.5299  53.5942
 -13.800  -1.3927   0.08067   0.05085   0.0363   0.6768   0.0128  20.5488  53.5924
 -13.600  -1.4020   0.07664   0.04718   0.0355   0.6763   0.0128  20.5684  53.5930
 -13.400  -1.4092   0.07304   0.04396   0.0349   0.6757   0.0128  20.5895  53.5954
 -13.200  -1.4156   0.06965   0.04101   0.0347   0.6751   0.0128  20.6120  53.5983
 -13.000  -1.4213   0.06652   0.03830   0.0346   0.6744   0.0129  20.6358  53.6011
 -12.800  -1.4264   0.06350   0.03573   0.0347   0.6737   0.0129  20.6609  53.6023
 -12.600  -1.4308   0.06058   0.03330   0.0351   0.6730   0.0128  20.6873  53.5993
 -12.400  -1.4371   0.05747   0.03073   0.0357   0.6722   0.0127  20.7133  53.5860
 -12.200  -1.4416   0.05461   0.02843   0.0366   0.6714   0.0126  20.7418  53.5693
 -12.000  -1.4458   0.05188   0.02626   0.0376   0.6706   0.0125  20.7731  53.5541
 -11.800  -1.4486   0.04942   0.02434   0.0387   0.6696   0.0124  20.8080  53.5400
 -11.600  -1.4498   0.04721   0.02266   0.0400   0.6685   0.0123  20.8474  53.5272
 -11.400  -1.4493   0.04523   0.02117   0.0413   0.6671   0.0122  20.8949  53.5151
 -11.200  -1.4480   0.04335   0.01976   0.0426   0.6652   0.0121  20.9632  53.5041
 -11.000  -1.4471   0.04151   0.01840   0.0440   0.6641   0.0121  21.0047  53.4944
 -10.800  -1.4459   0.03973   0.01713   0.0454   0.6638   0.0120  21.0130  53.4858
 -10.600  -1.4426   0.03816   0.01604   0.0469   0.6635   0.0120  21.0229  53.4778
 -10.400  -1.4389   0.03667   0.01502   0.0484   0.6631   0.0119  21.0346  53.4708
 -10.200  -1.4352   0.03525   0.01405   0.0499   0.6627   0.0119  21.0482  53.4648
 -10.000  -1.4317   0.03384   0.01310   0.0515   0.6622   0.0118  21.0640  53.4598
  -9.800  -1.4282   0.03245   0.01216   0.0531   0.6617   0.0118  21.0822  53.4557
  -9.600  -1.4226   0.03123   0.01136   0.0546   0.6610   0.0118  21.1032  53.4524
  -9.400  -1.4165   0.03006   0.01061   0.0562   0.6603   0.0118  21.1271  53.4501
  -9.200  -1.4104   0.02892   0.00989   0.0577   0.6594   0.0118  21.1537  53.4487
  -9.000  -1.4045   0.02781   0.00919   0.0593   0.6585   0.0117  21.1830  53.4483
  -8.800  -1.3970   0.02681   0.00859   0.0608   0.6575   0.0118  21.2151  53.4491
  -8.600  -1.3889   0.02586   0.00802   0.0623   0.6564   0.0118  21.2500  53.4512
  -8.400  -1.3806   0.02493   0.00747   0.0638   0.6552   0.0118  21.2889  53.4553
  -8.200  -1.3717   0.02406   0.00697   0.0653   0.6539   0.0118  21.3315  53.4602
  -8.000  -1.3620   0.02325   0.00652   0.0667   0.6525   0.0119  21.3770  53.4671
  -7.800  -1.3522   0.02248   0.00609   0.0681   0.6510   0.0119  21.4238  53.4761
  -7.600  -1.3417   0.02173   0.00568   0.0695   0.6496   0.0120  21.4698  53.4878
  -7.400  -1.3304   0.02106   0.00532   0.0708   0.6483   0.0121  21.5132  53.5031
  -7.200  -1.3189   0.02040   0.00499   0.0722   0.6469   0.0123  21.5565  53.5227
  -7.000  -1.3071   0.01978   0.00467   0.0735   0.6455   0.0125  21.6027  53.5484
  -6.800  -1.2945   0.01921   0.00439   0.0747   0.6439   0.0127  21.6528  53.5829
  -6.600  -1.2817   0.01866   0.00412   0.0760   0.6422   0.0131  21.7095  53.6295
  -6.400  -1.2683   0.01816   0.00389   0.0772   0.6401   0.0135  21.7771  53.6931
  -6.200  -1.2542   0.01773   0.00370   0.0783   0.6374   0.0141  21.8623  53.7739
  -6.000  -1.2391   0.01737   0.00354   0.0792   0.6340   0.0147  21.9718  53.8518
  -5.800  -1.2232   0.01705   0.00341   0.0801   0.6328   0.0151  22.0115  53.9040
  -5.600  -1.2069   0.01676   0.00330   0.0810   0.6322   0.0154  22.0298  53.9415
  -5.400  -1.1903   0.01649   0.00319   0.0818   0.6314   0.0155  22.0539  53.9658
  -5.200  -1.1734   0.01622   0.00308   0.0826   0.6304   0.0157  22.0858  53.9822
  -5.000  -1.1565   0.01597   0.00297   0.0834   0.6292   0.0157  22.1260  53.9937
  -4.800  -1.1414   0.01560   0.00280   0.0845   0.6277   0.0161  22.1725  54.0387
  -4.600  -1.1278   0.01513   0.00259   0.0859   0.6261   0.0170  22.2216  54.1315
  -4.400  -1.1125   0.01476   0.00243   0.0871   0.6246   0.0176  22.2716  54.2023
  -4.200  -1.0966   0.01444   0.00229   0.0882   0.6229   0.0182  22.3244  54.2663
  -4.000  -1.0805   0.01415   0.00218   0.0893   0.6212   0.0188  22.3792  54.3299
  -3.800  -1.0646   0.01388   0.00208   0.0904   0.6193   0.0194  22.4371  54.3984
  -3.600  -1.0488   0.01363   0.00199   0.0916   0.6174   0.0203  22.4996  54.4902
  -3.400  -1.0317   0.01339   0.00189   0.0926   0.6151   0.0210  22.5710  54.5654
  -3.200  -1.0137   0.01314   0.00178   0.0934   0.6124   0.0217  22.6565  54.6497
  -3.000  -0.9954   0.01290   0.00168   0.0941   0.6090   0.0227  22.7631  54.7473
  -2.800  -0.9768   0.01269   0.00159   0.0948   0.6050   0.0238  22.8894  54.8734
  -2.400  -0.9430   0.01198   0.00132   0.0966   0.6008   0.0476  23.0208  56.8565
  -2.200  -0.9267   0.01155   0.00116   0.0977   0.6001   0.0696  23.0451  58.2877
  -2.000  -0.9103   0.01112   0.00101   0.0986   0.5991   0.0931  23.0764  59.6028
  -1.800  -0.8934   0.01071   0.00086   0.0996   0.5977   0.1189  23.1177  60.8888
  -1.600  -0.8767   0.01028   0.00071   0.1005   0.5961   0.1499  23.1694  62.2715
  -1.400  -0.8606   0.00981   0.00054   0.1015   0.5942   0.1862  23.2291  63.7572
  -1.200  -0.8440   0.00936   0.00039   0.1025   0.5922   0.2252  23.2920  65.2283
  -1.000  -0.8285   0.00882   0.00020   0.1036   0.5902   0.2741  23.3535  66.9565
  -0.800  -0.8142   0.00821  -0.00000   0.1049   0.5881   0.3345  23.4197  68.9576
  -0.600  -0.7989   0.00767  -0.00018   0.1061   0.5858   0.3902  23.4904  70.7187
  -0.400  -0.7834   0.00715  -0.00034   0.1073   0.5833   0.4477  23.5669  72.4896
  -0.200  -0.7660   0.00676  -0.00044   0.1081   0.5804   0.4947  23.6575  73.9219
   0.000  -0.7467   0.00651  -0.00051   0.1087   0.5766   0.5257  23.7777  74.8631
   0.200  -0.7263   0.00634  -0.00055   0.1091   0.5718   0.5470  23.9271  75.5079
   0.400  -0.7046   0.00623  -0.00058   0.1093   0.5690   0.5611  24.0121  75.9390
   0.600  -0.6835   0.00607  -0.00061   0.1096   0.5681   0.5782  24.0396  76.4627
   0.800  -0.6622   0.00592  -0.00065   0.1099   0.5669   0.5985  24.0782  77.0877
   1.000  -0.6421   0.00570  -0.00070   0.1104   0.5652   0.6234  24.1313  77.8603
   1.200  -0.6219   0.00548  -0.00076   0.1109   0.5631   0.6489  24.1970  78.6639
   1.400  -0.6014   0.00530  -0.00081   0.1113   0.5608   0.6742  24.2668  79.4718
   1.600  -0.5803   0.00525  -0.00069   0.1117   0.5582   0.6977  24.3481  80.3940
   1.800  -0.5552   0.00571  -0.00018   0.1115   0.5549   0.7025  24.4506  80.6637
   2.000  -0.5302   0.00609   0.00022   0.1114   0.5509   0.7060  24.5734  80.8590
   2.800  -0.4369   0.00596  -0.00001   0.1107   0.5355   0.7384  25.0484  82.4353
   3.000  -0.4131   0.00601   0.00005   0.1106   0.5335   0.7406  25.1098  82.5155
   3.200  -0.3892   0.00608   0.00012   0.1104   0.5307   0.7430  25.1961  82.5996
   3.400  -0.3654   0.00614   0.00017   0.1102   0.5270   0.7453  25.3094  82.6794
   3.600  -0.3417   0.00621   0.00021   0.1101   0.5222   0.7472  25.4558  82.7478
   3.800  -0.3180   0.00629   0.00024   0.1099   0.5166   0.7489  25.6286  82.8095
   4.000  -0.2943   0.00639   0.00028   0.1098   0.5094   0.7504  25.8495  82.8626
   4.200  -0.2704   0.00649   0.00033   0.1096   0.5039   0.7516  26.0181  82.9052
   4.400  -0.2464   0.00656   0.00037   0.1093   0.5010   0.7525  26.1072  82.9365
   4.600  -0.2224   0.00665   0.00041   0.1091   0.4960   0.7532  26.2617  82.9619
   4.800  -0.1984   0.00677   0.00044   0.1089   0.4896   0.7538  26.4564  82.9829
   5.000  -0.1744   0.00691   0.00047   0.1087   0.4810   0.7543  26.7227  82.9988
   5.200  -0.1520   0.00678   0.00042   0.1086   0.4710   0.7560  27.0274  83.0613
   5.400  -0.1291   0.00669   0.00039   0.1085   0.4648   0.7574  27.2202  83.1131
   5.600  -0.1063   0.00672   0.00035   0.1084   0.4418   0.7586  27.9268  83.1556
   5.800  -0.0832   0.00676   0.00033   0.1082   0.4222   0.7596  28.5350  83.1937
   6.000  -0.0601   0.00683   0.00034   0.1080   0.4053   0.7605  29.0585  83.2281
   6.200  -0.0369   0.00688   0.00034   0.1078   0.3908   0.7616  29.5127  83.2662
   6.400  -0.0138   0.00699   0.00037   0.1076   0.3713   0.7627  30.1290  83.3087
   6.600   0.0091   0.00717   0.00042   0.1074   0.3430   0.7638  31.0311  83.3495
   6.800   0.0319   0.00739   0.00047   0.1072   0.3074   0.7648  32.1976  83.3844
   7.000   0.0544   0.00767   0.00055   0.1070   0.2672   0.7655  33.5566  83.4118
   7.200   0.0770   0.00794   0.00062   0.1067   0.2330   0.7661  34.7632  83.4318
   7.400   0.0995   0.00820   0.00070   0.1064   0.1995   0.7665  36.0058  83.4493
   7.600   0.1222   0.00845   0.00077   0.1062   0.1718   0.7670  37.0999  83.4652
   7.800   0.1448   0.00870   0.00085   0.1059   0.1460   0.7674  38.1811  83.4797
   8.000   0.1674   0.00895   0.00093   0.1056   0.1223   0.7677  39.2450  83.4927
   8.200   0.1899   0.00920   0.00102   0.1053   0.1012   0.7681  40.2701  83.5049
   8.400   0.2124   0.00947   0.00112   0.1050   0.0810   0.7686  41.3457  83.5238
   8.600   0.2347   0.00980   0.00124   0.1047   0.0600   0.7692  42.6092  83.5473
   8.800   0.2567   0.01020   0.00141   0.1044   0.0356   0.7698  44.3753  83.5698
   9.000   0.2793   0.01045   0.00152   0.1041   0.0273   0.7703  45.0938  83.5879
   9.200   0.3022   0.01061   0.00159   0.1038   0.0259   0.7706  45.2295  83.5997
   9.400   0.3250   0.01079   0.00167   0.1036   0.0249   0.7708  45.3330  83.6049
   9.600   0.3477   0.01096   0.00175   0.1033   0.0241   0.7709  45.4210  83.6079
   9.800   0.3704   0.01115   0.00183   0.1030   0.0233   0.7709  45.5018  83.6101
  10.000   0.3931   0.01134   0.00191   0.1027   0.0225   0.7710  45.5783  83.6114
  10.200   0.4156   0.01154   0.00201   0.1024   0.0216   0.7710  45.6728  83.6120
  10.400   0.4381   0.01177   0.00212   0.1021   0.0208   0.7710  45.7565  83.6138
  10.600   0.4604   0.01204   0.00227   0.1017   0.0199   0.7713  45.8434  83.6239
  10.800   0.4822   0.01245   0.00250   0.1014   0.0187   0.7718  45.9707  83.6439
  11.000   0.5045   0.01267   0.00262   0.1011   0.0183   0.7725  46.0102  83.6696
  11.200   0.5271   0.01281   0.00268   0.1008   0.0182   0.7732  46.0269  83.6924
  11.400   0.5497   0.01294   0.00273   0.1005   0.0180   0.7735  46.0531  83.7057
  11.600   0.5722   0.01309   0.00278   0.1001   0.0177   0.7737  46.0961  83.7115
  11.800   0.5945   0.01328   0.00286   0.0998   0.0171   0.7741  46.1667  83.7260
  12.000   0.6165   0.01354   0.00298   0.0994   0.0164   0.7746  46.2622  83.7453
  12.200   0.6382   0.01388   0.00315   0.0990   0.0157   0.7751  46.3419  83.7620
  12.400   0.6597   0.01426   0.00335   0.0986   0.0153   0.7753  46.4012  83.7707
  12.600   0.6809   0.01467   0.00358   0.0981   0.0149   0.7752  46.4423  83.7681
  12.800   0.7020   0.01512   0.00384   0.0976   0.0147   0.7750  46.4713  83.7590
  13.000   0.7228   0.01563   0.00415   0.0970   0.0146   0.7748  46.4922  83.7512
  13.200   0.7433   0.01621   0.00451   0.0963   0.0144   0.7748  46.5073  83.7516
  13.400   0.7634   0.01686   0.00492   0.0955   0.0144   0.7749  46.5179  83.7548
  13.600   0.7830   0.01758   0.00539   0.0947   0.0143   0.7749  46.5249  83.7560
  13.800   0.8019   0.01839   0.00593   0.0937   0.0143   0.7748  46.5290  83.7518
  14.000   0.8200   0.01935   0.00658   0.0924   0.0143   0.7746  46.5306  83.7469
  14.200   0.8368   0.02037   0.00728   0.0912   0.0143   0.7747  46.5305  83.7478
  14.400   0.8520   0.02149   0.00805   0.0900   0.0143   0.7747  46.5286  83.7498
  14.600   0.8644   0.02281   0.00898   0.0886   0.0143   0.7747  46.5248  83.7477
  14.800   0.8738   0.02416   0.00993   0.0876   0.0143   0.7743  46.5199  83.7349
  15.000   0.8769   0.02541   0.01077   0.0879   0.0144   0.7739  46.5146  83.7180
