  
       XFOIL         Version 6.99
  
 Calculated polar for: wxtail                                          
  
 1 1 Reynolds number fixed          Mach number fixed         
  
 xtrf =   1.000 (top)        1.000 (bottom)  
 Mach =   0.000     Re =     0.700 e 6     Ncrit =   9.000
  
   alpha    CL        CD       CDp       CM     Top_Xtr  Bot_Xtr
  ------ -------- --------- --------- -------- -------- --------
  -4.500  -1.3038   0.02887   0.02135   0.1175   0.6436   0.0237
  -4.000  -1.2719   0.02721   0.01964   0.1209   0.6387   0.0254
  -3.500  -1.2363   0.02588   0.01826   0.1240   0.6348   0.0278
  -3.000  -1.2005   0.02456   0.01690   0.1271   0.6318   0.0320
  -2.500  -1.1650   0.02318   0.01561   0.1303   0.6286   0.0488
  -2.000  -1.1305   0.02166   0.01446   0.1334   0.6241   0.1024
  -1.500  -1.0962   0.02013   0.01345   0.1366   0.6193   0.1888
  -1.000  -1.0661   0.01844   0.01255   0.1406   0.6149   0.3309
  -0.500  -1.0427   0.01691   0.01181   0.1460   0.6112   0.4790
   0.000  -1.0139   0.01591   0.01113   0.1507   0.6064   0.5488
   0.500  -0.9868   0.01491   0.01038   0.1558   0.6009   0.6012
   1.000  -0.9649   0.01376   0.00939   0.1618   0.5957   0.6438
   1.500  -0.9497   0.01245   0.00820   0.1692   0.5909   0.6854
   2.000  -0.8375   0.01609   0.01217   0.1617   0.5839   0.7289
   2.500  -1.0001   0.01198   0.00802   0.2010   0.5799   0.8047
   3.000  -0.6646   0.01958   0.01560   0.1532   0.5690   0.7736
   3.500  -0.5810   0.02066   0.01669   0.1494   0.5604   0.7687
   4.000  -0.5040   0.02154   0.01750   0.1467   0.5511   0.7563
   5.000  -0.5069   0.02047   0.01634   0.1663   0.5355   0.8285
   5.500  -0.4277   0.02081   0.01665   0.1626   0.5236   0.8317
   6.000  -0.3405   0.02129   0.01709   0.1576   0.5086   0.8342
   6.500  -0.2998   0.02183   0.01765   0.1608   0.4944   0.8461
   7.000  -0.2009   0.02198   0.01777   0.1536   0.4697   0.8491
   8.000  -0.0414   0.02275   0.01843   0.1457   0.3839   0.8688
   9.000   0.0617   0.02371   0.01900   0.1457   0.2499   0.8825
   9.500   0.1316   0.02390   0.01891   0.1418   0.1705   0.8836
  10.000   0.2010   0.02432   0.01904   0.1375   0.1019   0.8850
  10.500   0.2686   0.02495   0.01941   0.1333   0.0507   0.8863
  11.000   0.3339   0.02552   0.01994   0.1298   0.0367   0.8877
  11.500   0.3981   0.02619   0.02063   0.1262   0.0321   0.8894
  12.000   0.4618   0.02714   0.02161   0.1221   0.0292   0.8909
  12.500   0.5228   0.02815   0.02272   0.1184   0.0278   0.8922
  13.000   0.5818   0.02937   0.02400   0.1147   0.0263   0.8933
  13.500   0.5958   0.03332   0.02802   0.1186   0.0256   0.8977
  14.000   0.6425   0.03570   0.03047   0.1153   0.0246   0.8978
  14.500   0.6776   0.03764   0.03251   0.1148   0.0243   0.8980
  15.000   0.7075   0.03968   0.03468   0.1146   0.0237   0.8981
  16.500   0.7533   0.04370   0.03903   0.1180   0.0222   0.9009
  17.000   0.7547   0.04614   0.04159   0.1204   0.0219   0.9020
  17.500   0.7559   0.04896   0.04453   0.1224   0.0217   0.9031
  18.000   0.7512   0.05211   0.04781   0.1249   0.0216   0.9041
  18.500   0.7450   0.05557   0.05137   0.1273   0.0213   0.9054
  19.000   0.7311   0.05989   0.05585   0.1296   0.0210   0.9070
  19.500   0.7078   0.06491   0.06107   0.1320   0.0210   0.9097
  20.000   0.5058   0.05345   0.04893   0.1758   0.0215   0.8450
