  
       XFOIL         Version 6.99
  
 Calculated polar for: wxtail                                          
  
 1 1 Reynolds number fixed          Mach number fixed         
  
 xtrf =   1.000 (top)        1.000 (bottom)  
 Mach =   0.000     Re =     0.700 e 6     Ncrit =   9.000  9.000
  
   alpha    CL        CD       CDp       CM     Top_Xtr  Bot_Xtr  Top_Itr  Bot_Itr
  ------ -------- --------- --------- -------- -------- -------- -------- --------
 -17.000  -0.7646   0.06023   0.03956  -0.0816   0.8023   0.0205  15.2041  54.2163
 -16.800  -0.7771   0.05596   0.03543  -0.0840   0.8027   0.0202  15.1877  54.1811
 -16.600  -0.7838   0.05273   0.03239  -0.0858   0.8032   0.0200  15.1716  54.1592
 -16.400  -0.7870   0.05006   0.02994  -0.0872   0.8036   0.0198  15.1557  54.1419
 -16.200  -0.7883   0.04769   0.02779  -0.0884   0.8040   0.0197  15.1401  54.1276
 -16.000  -0.7875   0.04557   0.02592  -0.0894   0.8044   0.0195  15.1248  54.1147
 -15.800  -0.7862   0.04359   0.02419  -0.0904   0.8048   0.0194  15.1097  54.1034
 -15.600  -0.7829   0.04183   0.02268  -0.0911   0.8051   0.0193  15.0952  54.0929
 -15.400  -0.7793   0.04012   0.02123  -0.0918   0.8055   0.0192  15.0810  54.0833
 -15.200  -0.7744   0.03856   0.01993  -0.0924   0.8059   0.0191  15.0674  54.0744
 -15.000  -0.7685   0.03708   0.01871  -0.0929   0.8062   0.0191  15.0543  54.0663
 -14.800  -0.7623   0.03565   0.01755  -0.0934   0.8065   0.0190  15.0418  54.0583
 -14.600  -0.7548   0.03433   0.01649  -0.0938   0.8068   0.0189  15.0300  54.0506
 -14.400  -0.7464   0.03306   0.01549  -0.0942   0.8071   0.0188  15.0190  54.0434
 -14.200  -0.7376   0.03181   0.01451  -0.0946   0.8074   0.0188  15.0086  54.0367
 -14.000  -0.7284   0.03059   0.01359  -0.0950   0.8077   0.0187  14.9976  54.0306
 -13.800  -0.7200   0.02943   0.01278  -0.0950   0.8082   0.0187  14.9770  54.0252
 -13.600  -0.7100   0.02829   0.01198  -0.0953   0.8084   0.0186  14.9681  54.0204
 -13.400  -0.6973   0.02713   0.01115  -0.0958   0.8084   0.0186  14.9679  54.0164
 -13.200  -0.6840   0.02597   0.01035  -0.0962   0.8085   0.0186  14.9663  54.0139
 -13.000  -0.6703   0.02480   0.00958  -0.0965   0.8086   0.0186  14.9594  54.0135
 -12.800  -0.6566   0.02362   0.00882  -0.0966   0.8087   0.0186  14.9550  54.0166
 -12.600  -0.6430   0.02242   0.00806  -0.0968   0.8087   0.0187  14.9559  54.0252
 -12.400  -0.6294   0.02114   0.00726  -0.0971   0.8088   0.0188  14.9528  54.0435
 -12.200  -0.6150   0.01977   0.00643  -0.0976   0.8092   0.0192  14.9371  54.0806
 -12.000  -0.5993   0.01836   0.00556  -0.0986   0.8096   0.0200  14.9192  54.1645
 -11.800  -0.5810   0.01725   0.00489  -0.0996   0.8100   0.0215  14.9029  54.3209
 -11.600  -0.5605   0.01665   0.00456  -0.1002   0.8102   0.0230  14.8978  54.4669
 -11.400  -0.5395   0.01626   0.00434  -0.1008   0.8098   0.0242  14.9113  54.5915
 -11.200  -0.5184   0.01594   0.00414  -0.1012   0.8092   0.0252  14.9367  54.7000
 -11.000  -0.4970   0.01565   0.00395  -0.1016   0.8087   0.0261  14.9582  54.7887
 -10.800  -0.4754   0.01536   0.00378  -0.1020   0.8085   0.0268  14.9648  54.8596
 -10.600  -0.4535   0.01508   0.00362  -0.1024   0.8085   0.0274  14.9631  54.9152
 -10.400  -0.4315   0.01483   0.00348  -0.1028   0.8084   0.0278  14.9678  54.9578
 -10.200  -0.4096   0.01464   0.00335  -0.1031   0.8081   0.0281  14.9819  54.9911
 -10.000  -0.3882   0.01430   0.00315  -0.1035   0.8076   0.0292  15.0023  55.0847
  -9.800  -0.3662   0.01390   0.00294  -0.1038   0.8073   0.0311  15.0128  55.2496
  -9.600  -0.3440   0.01356   0.00278  -0.1042   0.8071   0.0341  15.0217  55.5033
  -9.400  -0.3218   0.01324   0.00263  -0.1045   0.8068   0.0382  15.0309  55.8501
  -9.200  -0.3003   0.01274   0.00242  -0.1050   0.8067   0.0596  15.0371  57.3681
  -9.000  -0.2788   0.01228   0.00225  -0.1054   0.8066   0.0887  15.0390  59.0837
  -8.800  -0.2571   0.01187   0.00211  -0.1058   0.8065   0.1165  15.0416  60.4808
  -8.600  -0.2351   0.01153   0.00201  -0.1062   0.8065   0.1435  15.0451  61.7099
  -8.400  -0.2130   0.01120   0.00191  -0.1066   0.8063   0.1734  15.0495  62.9664
  -8.200  -0.1911   0.01083   0.00181  -0.1070   0.8062   0.2099  15.0550  64.3844
  -8.000  -0.1689   0.01050   0.00173  -0.1073   0.8059   0.2436  15.0646  65.6148
  -7.800  -0.1467   0.01018   0.00166  -0.1077   0.8055   0.2809  15.0806  66.9133
  -7.600  -0.1244   0.00987   0.00160  -0.1080   0.8049   0.3186  15.1030  68.1752
  -7.400  -0.1020   0.00959   0.00158  -0.1082   0.8042   0.3542  15.1296  69.3254
  -7.200  -0.0792   0.00942   0.00158  -0.1085   0.8036   0.3818  15.1556  70.2050
  -7.000  -0.0564   0.00930   0.00160  -0.1087   0.8030   0.4039  15.1759  70.8986
  -6.800  -0.0334   0.00920   0.00163  -0.1089   0.8025   0.4219  15.1969  71.4551
  -6.600  -0.0103   0.00915   0.00166  -0.1090   0.8019   0.4365  15.2206  71.9080
  -6.400   0.0127   0.00908   0.00172  -0.1092   0.8012   0.4524  15.2473  72.3977
  -6.200   0.0359   0.00906   0.00178  -0.1094   0.8004   0.4694  15.2771  72.9240
  -6.000   0.0588   0.00903   0.00187  -0.1095   0.7995   0.4849  15.3112  73.3978
  -5.800   0.0820   0.00902   0.00193  -0.1096   0.7983   0.4952  15.3563  73.7151
  -5.600   0.1053   0.00902   0.00194  -0.1097   0.7969   0.5020  15.4118  73.9222
  -5.400   0.1286   0.00899   0.00194  -0.1098   0.7953   0.5077  15.4736  74.0968
  -5.200   0.1516   0.00894   0.00197  -0.1098   0.7937   0.5153  15.5348  74.3303
  -5.000   0.1749   0.00894   0.00201  -0.1099   0.7923   0.5218  15.5878  74.5321
  -4.800   0.1982   0.00894   0.00203  -0.1100   0.7909   0.5276  15.6395  74.7084
  -4.600   0.2217   0.00895   0.00202  -0.1101   0.7895   0.5321  15.6935  74.8470
  -4.400   0.2452   0.00897   0.00201  -0.1102   0.7880   0.5355  15.7509  74.9514
  -4.200   0.2685   0.00898   0.00198  -0.1103   0.7862   0.5395  15.8201  75.0757
  -4.000   0.2911   0.00905   0.00200  -0.1102   0.7839   0.5455  15.9109  75.2616
  -3.800   0.3129   0.00925   0.00206  -0.1101   0.7812   0.5500  16.0112  75.3989
  -3.600   0.3365   0.00917   0.00207  -0.1102   0.7801   0.5540  16.0547  75.5243
  -3.400   0.3600   0.00911   0.00208  -0.1103   0.7786   0.5577  16.1093  75.6382
  -3.200   0.3834   0.00905   0.00206  -0.1104   0.7765   0.5610  16.1835  75.7409
  -3.000   0.4067   0.00900   0.00203  -0.1104   0.7740   0.5642  16.2768  75.8391
  -2.800   0.4301   0.00895   0.00199  -0.1104   0.7713   0.5669  16.3778  75.9207
  -2.600   0.4535   0.00892   0.00194  -0.1105   0.7685   0.5688  16.4805  75.9816
  -2.400   0.4770   0.00880   0.00185  -0.1105   0.7655   0.5729  16.5889  76.1069
  -2.200   0.5005   0.00870   0.00178  -0.1106   0.7625   0.5770  16.6984  76.2359
  -2.000   0.5240   0.00866   0.00171  -0.1106   0.7596   0.5800  16.8048  76.3286
  -1.800   0.5470   0.00875   0.00168  -0.1106   0.7560   0.5828  16.9389  76.4175
  -1.600   0.5699   0.00874   0.00164  -0.1105   0.7529   0.5856  17.0502  76.5044
  -1.400   0.5932   0.00857   0.00154  -0.1105   0.7491   0.5883  17.1839  76.5880
  -1.200   0.6164   0.00842   0.00140  -0.1104   0.7433   0.5908  17.3891  76.6646
  -1.000   0.6400   0.00826   0.00123  -0.1104   0.7363   0.5933  17.6378  76.7434
  -0.800   0.6637   0.00808   0.00098  -0.1103   0.7290   0.5958  17.8961  76.8209
  -0.600   0.6869   0.00794   0.00091  -0.1104   0.7002   0.5979  19.4636  76.8878
  -0.400   0.7094   0.00753   0.00027  -0.1099   0.6803   0.5996  20.3292  76.9395
  -0.200   0.7282   0.00773   0.00022  -0.1090   0.6515   0.6008  21.2556  76.9774
   0.000   0.7472   0.00795   0.00025  -0.1083   0.6273   0.6027  22.0190  77.0359
   0.200   0.7683   0.00802   0.00028  -0.1080   0.6121   0.6061  22.4915  77.1461
   0.600   0.8095   0.00833   0.00039  -0.1072   0.5833   0.6110  23.3818  77.2983
   0.800   0.8286   0.00859   0.00047  -0.1065   0.5639   0.6131  23.9757  77.3646
   1.000   0.8481   0.00882   0.00053  -0.1058   0.5403   0.6151  24.6932  77.4285
   1.200   0.8651   0.00917   0.00061  -0.1048   0.5051   0.6170  25.7638  77.4897
   1.400   0.8816   0.00955   0.00070  -0.1037   0.4688   0.6189  26.8656  77.5486
   1.600   0.8950   0.01012   0.00084  -0.1022   0.4132   0.6207  28.5666  77.6072
   1.800   0.9052   0.01089   0.00108  -0.1002   0.3448   0.6226  30.7134  77.6653
   2.000   0.9147   0.01173   0.00135  -0.0982   0.2774   0.6244  32.9331  77.7226
   2.200   0.9259   0.01246   0.00160  -0.0965   0.2222   0.6262  34.8784  77.7805
   2.400   0.9383   0.01310   0.00183  -0.0949   0.1776   0.6281  36.5838  77.8394
   2.600   0.9506   0.01374   0.00205  -0.0933   0.1394   0.6298  38.1811  77.8929
   2.800   0.9630   0.01434   0.00226  -0.0918   0.1066   0.6312  39.7094  77.9374
   3.000   0.9743   0.01494   0.00247  -0.0900   0.0778   0.6322  41.2311  77.9717
   3.200   0.9825   0.01560   0.00269  -0.0877   0.0498   0.6330  42.9863  77.9969
   3.400   0.9942   0.01607   0.00291  -0.0861   0.0346   0.6359  44.1445  78.0898
   3.600   1.0090   0.01647   0.00310  -0.0849   0.0309   0.6380  44.4720  78.1568
   3.800   1.0236   0.01692   0.00332  -0.0837   0.0281   0.6397  44.7221  78.2098
   4.000   1.0377   0.01740   0.00356  -0.0824   0.0260   0.6411  44.9091  78.2575
   4.200   1.0513   0.01792   0.00382  -0.0811   0.0250   0.6426  45.0037  78.3041
   4.400   1.0668   0.01831   0.00403  -0.0801   0.0248   0.6442  45.0277  78.3549
   4.600   1.0820   0.01872   0.00425  -0.0790   0.0245   0.6459  45.0581  78.4094
   4.800   1.0968   0.01915   0.00448  -0.0780   0.0241   0.6476  45.0960  78.4658
   5.000   1.1113   0.01961   0.00472  -0.0769   0.0237   0.6494  45.1418  78.5225
   5.200   1.1256   0.02008   0.00496  -0.0758   0.0232   0.6511  45.1969  78.5776
   5.400   1.1396   0.02057   0.00522  -0.0747   0.0226   0.6528  45.2622  78.6316
   5.600   1.1532   0.02109   0.00549  -0.0736   0.0219   0.6545  45.3383  78.6860
   5.800   1.1667   0.02163   0.00576  -0.0725   0.0210   0.6561  45.4262  78.7397
   6.000   1.1793   0.02223   0.00606  -0.0714   0.0201   0.6577  45.5252  78.7911
   6.200   1.1904   0.02295   0.00643  -0.0700   0.0191   0.6592  45.6405  78.8389
   6.400   1.1978   0.02396   0.00698  -0.0683   0.0178   0.6605  45.7779  78.8810
   6.600   1.2004   0.02535   0.00778  -0.0660   0.0169   0.6616  45.8816  78.9158
   6.800   1.2021   0.02686   0.00867  -0.0636   0.0163   0.6625  45.9387  78.9451
   7.000   1.2043   0.02841   0.00959  -0.0614   0.0161   0.6633  45.9711  78.9695
   7.200   1.2086   0.02992   0.01048  -0.0594   0.0159   0.6639  45.9902  78.9897
   7.400   1.2159   0.03123   0.01128  -0.0577   0.0158   0.6654  46.0005  79.0429
   7.600   1.2264   0.03217   0.01190  -0.0565   0.0158   0.6673  46.0034  79.1121
   7.800   1.2368   0.03320   0.01256  -0.0552   0.0158   0.6689  46.0055  79.1659
   8.000   1.2472   0.03432   0.01326  -0.0539   0.0157   0.6702  46.0068  79.2151
   8.200   1.2577   0.03554   0.01401  -0.0527   0.0157   0.6715  46.0068  79.2621
   8.400   1.2685   0.03699   0.01489  -0.0514   0.0158   0.6728  46.0040  79.3067
