  
       XFOIL         Version 6.99
  
 Calculated polar for: wxtail                                          
  
 1 1 Reynolds number fixed          Mach number fixed         
  
 xtrf =   1.000 (top)        1.000 (bottom)  
 Mach =   0.000     Re =     1.500 e 6     Ncrit =   9.000  9.000
  
   alpha    CL        CD       CDp       CM     Top_Xtr  Bot_Xtr  Top_Itr  Bot_Itr
  ------ -------- --------- --------- -------- -------- -------- -------- --------
 -17.000  -1.0442   0.10403   0.08043   0.0036   1.0000   0.0144   1.0000  52.6478
 -16.800  -1.0731   0.09514   0.07118  -0.0016   1.0000   0.0142   1.0000  52.6333
 -16.600  -1.0959   0.08795   0.06395  -0.0056   1.0000   0.0142   1.0000  52.6241
 -16.400  -1.1141   0.08174   0.05789  -0.0089   1.0000   0.0141   1.0000  52.6178
 -16.200  -1.1293   0.07628   0.05270  -0.0117   1.0000   0.0141   1.0000  52.6142
 -16.000  -1.1424   0.07137   0.04814  -0.0140   1.0000   0.0141   1.0000  52.6128
 -15.800  -1.1516   0.06727   0.04442  -0.0158   1.0000   0.0141   1.0000  52.6139
 -15.600  -1.1608   0.06337   0.04093  -0.0173   1.0000   0.0141   1.0000  52.6156
 -15.400  -1.1687   0.05987   0.03785  -0.0185   1.0000   0.0141   1.0000  52.6180
 -15.200  -1.1748   0.05669   0.03511  -0.0194   1.0000   0.0142   1.0000  52.6214
 -15.000  -1.1815   0.05356   0.03244  -0.0202   1.0000   0.0142   1.0000  52.6225
 -14.800  -1.1892   0.05037   0.02976  -0.0206   1.0000   0.0141   1.0000  52.6116
 -14.600  -1.1977   0.04720   0.02713  -0.0208   1.0000   0.0140   1.0000  52.5960
 -14.400  -1.2037   0.04440   0.02486  -0.0206   1.0000   0.0138   1.0000  52.5802
 -14.200  -1.2083   0.04176   0.02274  -0.0204   1.0000   0.0137   1.0000  52.5652
 -14.000  -1.2112   0.03934   0.02085  -0.0201   1.0000   0.0136   1.0000  52.5510
 -13.800  -1.2059   0.03723   0.01888  -0.0210   0.8411   0.0135  13.5210  52.5354
 -13.600  -1.2077   0.03541   0.01740  -0.0201   0.7930   0.0134  15.4289  52.5241
 -13.400  -1.2068   0.03362   0.01602  -0.0193   0.7777   0.0133  16.0032  52.5131
 -13.200  -1.2047   0.03190   0.01475  -0.0186   0.7722   0.0133  16.2008  52.5029
 -13.000  -1.2027   0.03023   0.01352  -0.0179   0.7671   0.0132  16.3839  52.4939
 -12.800  -1.1991   0.02871   0.01241  -0.0172   0.7620   0.0131  16.5693  52.4857
 -12.600  -1.1954   0.02722   0.01134  -0.0165   0.7562   0.0131  16.7752  52.4785
 -12.400  -1.1907   0.02583   0.01034  -0.0158   0.7507   0.0130  16.9753  52.4723
 -12.200  -1.1854   0.02446   0.00939  -0.0151   0.7488   0.0130  17.0426  52.4670
 -12.000  -1.1796   0.02318   0.00851  -0.0144   0.7471   0.0130  17.0994  52.4627
 -11.800  -1.1734   0.02200   0.00772  -0.0136   0.7452   0.0129  17.1651  52.4594
 -11.600  -1.1669   0.02095   0.00703  -0.0126   0.7431   0.0129  17.2401  52.4571
 -11.400  -1.1598   0.02004   0.00644  -0.0114   0.7407   0.0129  17.3216  52.4558
 -11.200  -1.1520   0.01926   0.00596  -0.0099   0.7383   0.0129  17.4060  52.4558
 -11.000  -1.1428   0.01860   0.00556  -0.0084   0.7358   0.0129  17.4926  52.4577
 -10.800  -1.1302   0.01795   0.00515  -0.0074   0.7331   0.0129  17.5839  52.4606
 -10.600  -1.1163   0.01736   0.00477  -0.0065   0.7302   0.0130  17.6855  52.4656
 -10.400  -1.1015   0.01681   0.00442  -0.0058   0.7270   0.0130  17.7978  52.4731
 -10.200  -1.0857   0.01630   0.00411  -0.0051   0.7235   0.0131  17.9174  52.4837
 -10.000  -1.0691   0.01583   0.00382  -0.0045   0.7209   0.0132  18.0071  52.4981
  -9.800  -1.0518   0.01537   0.00355  -0.0040   0.7201   0.0134  18.0353  52.5177
  -9.600  -1.0340   0.01494   0.00331  -0.0035   0.7190   0.0136  18.0722  52.5442
  -9.400  -1.0156   0.01454   0.00308  -0.0031   0.7177   0.0138  18.1165  52.5808
  -9.200  -0.9968   0.01417   0.00288  -0.0027   0.7162   0.0142  18.1641  52.6327
  -9.000  -0.9775   0.01383   0.00271  -0.0024   0.7147   0.0148  18.2149  52.7068
  -8.800  -0.9576   0.01355   0.00257  -0.0021   0.7131   0.0155  18.2698  52.7939
  -8.600  -0.9371   0.01333   0.00246  -0.0020   0.7114   0.0161  18.3278  52.8759
  -8.400  -0.9161   0.01315   0.00238  -0.0019   0.7095   0.0165  18.3898  52.9278
  -8.200  -0.8949   0.01300   0.00230  -0.0018   0.7075   0.0167  18.4570  52.9598
  -8.000  -0.8736   0.01286   0.00223  -0.0018   0.7054   0.0169  18.5288  52.9801
  -7.800  -0.8522   0.01273   0.00215  -0.0017   0.7030   0.0170  18.6076  52.9936
  -7.600  -0.8321   0.01243   0.00197  -0.0015   0.7003   0.0176  18.6986  53.0605
  -7.400  -0.8122   0.01210   0.00178  -0.0012   0.6970   0.0185  18.8106  53.1616
  -7.200  -0.7915   0.01187   0.00163  -0.0010   0.6930   0.0193  18.9447  53.2400
  -7.000  -0.7705   0.01164   0.00151  -0.0009   0.6909   0.0200  19.0129  53.3138
  -6.800  -0.7492   0.01140   0.00138  -0.0007   0.6900   0.0209  19.0425  53.4127
  -6.600  -0.7278   0.01118   0.00127  -0.0006   0.6889   0.0216  19.0796  53.4877
  -6.400  -0.7062   0.01097   0.00117  -0.0006   0.6876   0.0224  19.1229  53.5685
  -6.200  -0.6846   0.01077   0.00106  -0.0005   0.6860   0.0232  19.1742  53.6571
  -6.000  -0.6630   0.01057   0.00097  -0.0004   0.6842   0.0242  19.2328  53.7608
  -5.800  -0.6412   0.01038   0.00087  -0.0004   0.6822   0.0255  19.2972  53.8969
  -5.400  -0.5998   0.00971   0.00055  -0.0000   0.6778   0.0559  19.4412  56.2841
  -5.200  -0.5795   0.00934   0.00038   0.0002   0.6753   0.0785  19.5242  57.6693
  -5.000  -0.5587   0.00903   0.00024   0.0003   0.6723   0.1005  19.6205  58.8522
  -4.600  -0.5170   0.00844  -0.00002   0.0006   0.6640   0.1521  19.8927  61.2387
  -4.400  -0.4964   0.00810  -0.00016   0.0007   0.6604   0.1859  20.0087  62.6142
  -4.200  -0.4754   0.00776  -0.00028   0.0008   0.6595   0.2207  20.0390  63.9431
  -4.000  -0.4550   0.00735  -0.00043   0.0010   0.6582   0.2662  20.0797  65.5610
  -3.800  -0.4339   0.00702  -0.00054   0.0011   0.6565   0.3056  20.1342  66.8982
  -3.600  -0.4135   0.00660  -0.00067   0.0013   0.6543   0.3598  20.2042  68.6554
  -3.400  -0.3924   0.00629  -0.00075   0.0014   0.6517   0.4058  20.2889  70.1024
  -3.200  -0.3706   0.00607  -0.00081   0.0014   0.6486   0.4394  20.3887  71.1420
  -3.000  -0.3483   0.00592  -0.00083   0.0015   0.6453   0.4632  20.4916  71.8751
  -2.800  -0.3255   0.00583  -0.00085   0.0014   0.6420   0.4785  20.5990  72.3423
  -2.600  -0.3028   0.00576  -0.00086   0.0014   0.6378   0.4933  20.7320  72.7954
  -2.400  -0.2799   0.00572  -0.00087   0.0013   0.6323   0.5079  20.9067  73.2429
  -2.200  -0.2572   0.00564  -0.00085   0.0013   0.6288   0.5276  21.0180  73.8451
  -2.000  -0.2337   0.00561  -0.00084   0.0012   0.6273   0.5364  21.0660  74.1133
  -1.800  -0.2105   0.00555  -0.00084   0.0011   0.6254   0.5455  21.1247  74.3925
  -1.600  -0.1872   0.00551  -0.00083   0.0010   0.6232   0.5529  21.1967  74.6213
  -1.400  -0.1638   0.00549  -0.00083   0.0008   0.6202   0.5589  21.2885  74.8058
  -1.200  -0.1402   0.00549  -0.00083   0.0007   0.6167   0.5627  21.4007  74.9228
  -1.000  -0.1167   0.00550  -0.00084   0.0006   0.6125   0.5651  21.5309  74.9937
  -0.800  -0.0936   0.00547  -0.00085   0.0005   0.6075   0.5726  21.6883  75.2265
  -0.600  -0.0705   0.00547  -0.00085   0.0004   0.6014   0.5794  21.8787  75.4389
  -0.400  -0.0472   0.00547  -0.00084   0.0003   0.5970   0.5844  22.0156  75.5916
  -0.200  -0.0236   0.00545  -0.00083   0.0002   0.5953   0.5887  22.0703  75.7250
   0.000  -0.0000   0.00544  -0.00083  -0.0000   0.5925   0.5925  22.1557  75.8443
   0.200   0.0236   0.00545  -0.00083  -0.0002   0.5887   0.5953  22.2750  75.9297
   0.400   0.0472   0.00547  -0.00084  -0.0003   0.5844   0.5970  22.4085  75.9841
   0.600   0.0705   0.00547  -0.00085  -0.0004   0.5794   0.6014  22.5613  76.1204
   0.800   0.0936   0.00547  -0.00085  -0.0005   0.5726   0.6075  22.7734  76.3134
   1.000   0.1167   0.00550  -0.00084  -0.0006   0.5651   0.6125  23.0063  76.4691
   1.200   0.1402   0.00549  -0.00083  -0.0007   0.5627   0.6167  23.0772  76.5993
   1.400   0.1638   0.00549  -0.00083  -0.0008   0.5589   0.6202  23.1942  76.7115
   1.600   0.1872   0.00551  -0.00083  -0.0010   0.5529   0.6232  23.3787  76.8033
   1.800   0.2105   0.00555  -0.00084  -0.0011   0.5455   0.6254  23.6078  76.8753
   2.000   0.2337   0.00561  -0.00084  -0.0012   0.5364   0.6273  23.8871  76.9340
   2.200   0.2572   0.00564  -0.00085  -0.0013   0.5277   0.6288  24.1539  76.9815
   2.400   0.2799   0.00572  -0.00087  -0.0013   0.5079   0.6323  24.7573  77.0933
   2.600   0.3028   0.00576  -0.00086  -0.0014   0.4933   0.6378  25.2043  77.2680
   2.800   0.3255   0.00583  -0.00085  -0.0014   0.4785   0.6420  25.6578  77.4010
   3.000   0.3483   0.00592  -0.00083  -0.0015   0.4633   0.6453  26.1243  77.5084
   3.200   0.3706   0.00607  -0.00081  -0.0014   0.4394   0.6486  26.8576  77.6113
   3.400   0.3924   0.00629  -0.00075  -0.0014   0.4058   0.6517  27.8966  77.7110
   3.600   0.4135   0.00660  -0.00067  -0.0013   0.3598   0.6543  29.3446  77.7958
   3.800   0.4339   0.00702  -0.00054  -0.0011   0.3056   0.6565  31.1016  77.8657
   4.000   0.4550   0.00735  -0.00043  -0.0010   0.2662   0.6582  32.4391  77.9203
   4.200   0.4754   0.00776  -0.00028  -0.0008   0.2207   0.6595  34.0564  77.9611
   4.400   0.4964   0.00810  -0.00016  -0.0007   0.1859   0.6604  35.3859  77.9913
   4.600   0.5170   0.00844  -0.00002  -0.0006   0.1521   0.6640  36.7614  78.1079
   4.800   0.5378   0.00874   0.00011  -0.0004   0.1243   0.6687  37.9909  78.2598
   5.000   0.5587   0.00903   0.00024  -0.0003   0.1005   0.6723  39.1472  78.3796
   5.200   0.5795   0.00934   0.00038  -0.0002   0.0785   0.6753  40.3309  78.4758
   5.400   0.5998   0.00971   0.00055   0.0000   0.0559   0.6778  41.7162  78.5588
   5.600   0.6198   0.01013   0.00075   0.0003   0.0329   0.6801  43.4412  78.6342
   5.800   0.6412   0.01038   0.00087   0.0004   0.0255   0.6822  44.1031  78.7028
   6.000   0.6630   0.01057   0.00097   0.0004   0.0242   0.6842  44.2393  78.7672
   6.200   0.6846   0.01077   0.00106   0.0005   0.0232   0.6860  44.3429  78.8259
   6.400   0.7063   0.01097   0.00117   0.0006   0.0224   0.6876  44.4315  78.8771
   6.600   0.7278   0.01118   0.00127   0.0006   0.0216   0.6889  44.5123  78.9204
   6.800   0.7493   0.01140   0.00138   0.0007   0.0209   0.6900  44.5873  78.9575
   7.000   0.7705   0.01164   0.00151   0.0008   0.0200   0.6909  44.6860  78.9864
   7.200   0.7916   0.01187   0.00163   0.0010   0.0193   0.6930  44.7602  79.0552
   7.400   0.8122   0.01210   0.00178   0.0012   0.0185   0.6970  44.8383  79.1899
   7.600   0.8321   0.01243   0.00198   0.0015   0.0176   0.7003  44.9395  79.3014
   7.800   0.8522   0.01273   0.00215   0.0017   0.0170   0.7030  45.0064  79.3924
   8.000   0.8736   0.01286   0.00223   0.0018   0.0169   0.7054  45.0200  79.4712
   8.200   0.8950   0.01300   0.00231   0.0018   0.0167   0.7075  45.0402  79.5430
   8.400   0.9162   0.01315   0.00238   0.0019   0.0165   0.7095  45.0725  79.6102
   8.600   0.9372   0.01333   0.00247   0.0020   0.0161   0.7114  45.1246  79.6722
   8.800   0.9577   0.01355   0.00257   0.0021   0.0155   0.7131  45.2062  79.7302
   9.000   0.9776   0.01383   0.00271   0.0024   0.0148   0.7147  45.2934  79.7851
   9.200   0.9969   0.01417   0.00288   0.0027   0.0142   0.7162  45.3673  79.8359
   9.400   1.0157   0.01454   0.00309   0.0031   0.0138   0.7177  45.4192  79.8835
   9.600   1.0340   0.01494   0.00331   0.0035   0.0136   0.7190  45.4559  79.9278
   9.800   1.0519   0.01537   0.00355   0.0040   0.0134   0.7201  45.4824  79.9647
  10.000   1.0692   0.01583   0.00382   0.0045   0.0132   0.7209  45.5019  79.9927
  10.200   1.0858   0.01630   0.00411   0.0051   0.0131   0.7235  45.5163  80.0832
  10.400   1.1016   0.01681   0.00443   0.0057   0.0130   0.7270  45.5269  80.2022
  10.600   1.1165   0.01736   0.00477   0.0065   0.0130   0.7302  45.5344  80.3146
  10.800   1.1304   0.01795   0.00515   0.0074   0.0129   0.7331  45.5394  80.4161
  11.000   1.1430   0.01860   0.00556   0.0083   0.0129   0.7358  45.5423  80.5074
  11.200   1.1523   0.01926   0.00596   0.0098   0.0129   0.7383  45.5442  80.5941
  11.400   1.1602   0.02003   0.00645   0.0113   0.0129   0.7407  45.5442  80.6783
  11.600   1.1673   0.02095   0.00704   0.0126   0.0129   0.7431  45.5429  80.7600
  11.800   1.1739   0.02200   0.00774   0.0135   0.0129   0.7452  45.5406  80.8350
  12.000   1.1801   0.02317   0.00853   0.0143   0.0130   0.7471  45.5373  80.9007
  12.200   1.1860   0.02445   0.00941   0.0150   0.0130   0.7488  45.5329  80.9576
  12.600   1.1961   0.02721   0.01137   0.0163   0.0131   0.7563  45.5213  81.2255
  12.800   1.2000   0.02869   0.01245   0.0170   0.0131   0.7620  45.5142  81.4326
  13.000   1.2037   0.03022   0.01356   0.0178   0.0132   0.7672  45.5059  81.6177
  13.200   1.2058   0.03188   0.01480   0.0185   0.0133   0.7723  45.4968  81.8013
  13.400   1.2079   0.03360   0.01608   0.0192   0.0133   0.7778  45.4866  81.9994
  13.800   1.2070   0.03719   0.01895   0.0209   0.0135   0.8453  45.4642  84.6529
  14.000   1.2125   0.03933   0.02093   0.0199   0.0136   1.0000  45.4484  97.0000
  14.200   1.2097   0.04173   0.02284   0.0202   0.0137   1.0000  45.4340  97.0000
  14.400   1.2051   0.04439   0.02498   0.0204   0.0138   1.0000  45.4189  97.0000
  14.600   1.1993   0.04719   0.02726   0.0205   0.0140   1.0000  45.4030  97.0000
  14.800   1.1908   0.05036   0.02992   0.0203   0.0141   1.0000  45.3873  97.0000
  15.000   1.1835   0.05352   0.03258   0.0199   0.0142   1.0000  45.3773  97.0000
  15.200   1.1773   0.05659   0.03522   0.0191   0.0141   1.0000  45.3798  97.0000
  15.400   1.1712   0.05977   0.03799   0.0182   0.0141   1.0000  45.3828  97.0000
  15.600   1.1633   0.06328   0.04110   0.0170   0.0141   1.0000  45.3852  97.0000
  15.800   1.1542   0.06716   0.04460   0.0155   0.0141   1.0000  45.3869  97.0000
  16.000   1.1449   0.07128   0.04835   0.0137   0.0141   1.0000  45.3878  97.0000
  16.200   1.1318   0.07619   0.05294   0.0114   0.0141   1.0000  45.3862  97.0000
  16.400   1.1165   0.08168   0.05819   0.0086   0.0141   1.0000  45.3823  97.0000
  16.600   1.0981   0.08794   0.06433   0.0052   0.0142   1.0000  45.3756  97.0000
  16.800   1.0751   0.09522   0.07169   0.0011   0.0142   1.0000  45.3659  97.0000
  17.000   1.0460   0.10416   0.08102  -0.0041   0.0144   1.0000  45.3514  97.0000
