  
       XFOIL         Version 6.99
  
 Calculated polar for: windex1200 originalprofil                       
  
 1 1 Reynolds number fixed          Mach number fixed         
  
 xtrf =   1.000 (top)        1.000 (bottom)  
 Mach =   0.000     Re =     1.500 e 6     Ncrit =   9.000
  
   alpha    CL        CD       CDp       CM     Top_Xtr  Bot_Xtr
  ------ -------- --------- --------- -------- -------- --------
  -5.000   0.1553   0.00873   0.00259  -0.1151   0.6054   0.0659
  -4.500   0.2137   0.00825   0.00234  -0.1163   0.6015   0.1258
  -4.000   0.2721   0.00749   0.00207  -0.1179   0.5977   0.2805
  -3.500   0.3316   0.00671   0.00185  -0.1197   0.5938   0.4656
  -3.000   0.3911   0.00612   0.00175  -0.1212   0.5896   0.6385
  -2.500   0.4500   0.00617   0.00184  -0.1219   0.5852   0.6872
  -2.000   0.5089   0.00624   0.00188  -0.1227   0.5803   0.7012
  -1.500   0.5676   0.00634   0.00196  -0.1234   0.5751   0.7133
  -1.000   0.6258   0.00647   0.00205  -0.1240   0.5699   0.7240
  -0.500   0.6841   0.00654   0.00213  -0.1247   0.5639   0.7305
   0.000   0.7423   0.00663   0.00219  -0.1254   0.5577   0.7361
   0.500   0.7999   0.00673   0.00229  -0.1260   0.5512   0.7406
   1.500   0.9145   0.00693   0.00246  -0.1271   0.5359   0.7476
   2.000   0.9712   0.00707   0.00260  -0.1276   0.5293   0.7503
   2.500   1.0276   0.00724   0.00275  -0.1281   0.5216   0.7532
   3.000   1.0830   0.00742   0.00292  -0.1284   0.5119   0.7556
   3.500   1.1381   0.00760   0.00312  -0.1286   0.5024   0.7578
   4.000   1.1923   0.00782   0.00333  -0.1287   0.4911   0.7603
   4.500   1.2469   0.00802   0.00354  -0.1289   0.4766   0.7629
   5.000   1.2991   0.00831   0.00379  -0.1287   0.4552   0.7650
   5.500   1.3465   0.00883   0.00418  -0.1277   0.4176   0.7669
   6.000   1.3861   0.00970   0.00484  -0.1253   0.3670   0.7691
   6.500   1.4054   0.01124   0.00596  -0.1194   0.2888   0.7718
   7.000   1.4060   0.01317   0.00746  -0.1104   0.2108   0.7745
   7.500   1.4062   0.01532   0.00932  -0.1021   0.1502   0.7773
   8.000   1.4060   0.01778   0.01156  -0.0947   0.1037   0.7805
   8.500   1.4122   0.02032   0.01398  -0.0890   0.0746   0.7834
   9.000   1.4070   0.02428   0.01782  -0.0837   0.0421   0.7863
   9.500   1.4146   0.02802   0.02155  -0.0808   0.0281   0.7893
  10.000   1.4264   0.03161   0.02517  -0.0785   0.0224   0.7924
  10.500   1.4430   0.03487   0.02852  -0.0768   0.0207   0.7954
  11.000   1.4565   0.03847   0.03220  -0.0750   0.0193   0.7986
  11.500   1.4717   0.04199   0.03581  -0.0736   0.0188   0.8019
  12.000   1.4846   0.04581   0.03973  -0.0722   0.0178   0.8048
  12.500   1.4957   0.04996   0.04398  -0.0710   0.0173   0.8080
  13.000   1.5050   0.05451   0.04863  -0.0699   0.0167   0.8115
  13.500   1.5180   0.05876   0.05300  -0.0693   0.0162   0.8143
  14.000   1.5287   0.06342   0.05778  -0.0687   0.0158   0.8176
  14.500   1.5383   0.06839   0.06284  -0.0685   0.0153   0.8211
  15.000   1.5432   0.07403   0.06861  -0.0685   0.0148   0.8234
