  
       XFOIL         Version 6.99
  
 Calculated polar for: windex1200 originalprofil                       
  
 1 1 Reynolds number fixed          Mach number fixed         
  
 xtrf =   1.000 (top)        1.000 (bottom)  
 Mach =   0.000     Re =     0.700 e 6     Ncrit =   9.000
  
   alpha    CL        CD       CDp       CM     Top_Xtr  Bot_Xtr
  ------ -------- --------- --------- -------- -------- --------
  -5.000   0.5427   0.00964   0.00451  -0.1872   0.6331   0.6212
  -4.500   0.6004   0.00984   0.00472  -0.1876   0.6285   0.6669
  -4.000   0.6583   0.01009   0.00491  -0.1881   0.6241   0.6869
  -3.500   0.7137   0.01034   0.00510  -0.1881   0.6192   0.7007
  -3.000   0.7685   0.01065   0.00538  -0.1878   0.6146   0.7126
  -2.500   0.8215   0.01093   0.00564  -0.1873   0.6097   0.7215
  -2.000   0.8734   0.01122   0.00595  -0.1865   0.6051   0.7256
  -1.500   0.9275   0.01141   0.00612  -0.1863   0.5999   0.7319
  -1.000   0.9783   0.01167   0.00641  -0.1854   0.5949   0.7354
  -0.500   1.0336   0.01183   0.00656  -0.1856   0.5900   0.7412
   0.000   1.0828   0.01210   0.00688  -0.1843   0.5847   0.7437
   0.500   1.1402   0.01223   0.00698  -0.1851   0.5798   0.7499
   1.000   1.1863   0.01247   0.00732  -0.1833   0.5736   0.7517
   1.500   1.2349   0.01270   0.00760  -0.1820   0.5677   0.7541
   2.000   1.2870   0.01281   0.00773  -0.1818   0.5601   0.7598
   2.500   1.3302   0.01305   0.00805  -0.1795   0.5512   0.7613
   3.000   1.3737   0.01330   0.00838  -0.1774   0.5405   0.7635
   3.500   1.4256   0.01352   0.00860  -0.1773   0.5297   0.7690
   4.000   1.4675   0.01395   0.00905  -0.1749   0.5145   0.7704
   4.500   1.5078   0.01445   0.00957  -0.1723   0.4953   0.7720
   5.000   1.5501   0.01495   0.01011  -0.1703   0.4765   0.7745
   5.500   1.5924   0.01558   0.01070  -0.1686   0.4462   0.7788
   6.000   1.6175   0.01683   0.01180  -0.1636   0.3988   0.7800
   6.500   1.6225   0.01923   0.01384  -0.1557   0.3251   0.7816
   7.000   1.6114   0.02268   0.01689  -0.1459   0.2470   0.7836
   7.500   1.5911   0.02717   0.02102  -0.1362   0.1767   0.7867
   8.000   1.5716   0.03256   0.02618  -0.1286   0.1239   0.7887
   8.500   1.5573   0.03873   0.03225  -0.1237   0.0887   0.7897
   9.000   1.5395   0.04589   0.03924  -0.1199   0.0491   0.7907
   9.500   1.5330   0.05211   0.04547  -0.1171   0.0341   0.7919
  10.500   1.5427   0.06261   0.05615  -0.1136   0.0266   0.7946
  11.000   1.5468   0.06836   0.06200  -0.1125   0.0249   0.7964
  11.500   1.5558   0.07363   0.06742  -0.1117   0.0238   0.7981
  12.000   1.5610   0.07927   0.07319  -0.1109   0.0229   0.7987
  12.500   1.5615   0.08569   0.07974  -0.1103   0.0220   0.7994
  13.000   1.5651   0.09181   0.08602  -0.1101   0.0213   0.8002
  13.500   1.5719   0.09759   0.09196  -0.1101   0.0207   0.8012
  14.000   1.5776   0.10354   0.09804  -0.1105   0.0200   0.8024
  14.500   1.5824   0.10968   0.10431  -0.1113   0.0194   0.8038
  15.000   1.5844   0.11623   0.11096  -0.1125   0.0190   0.8052
