  
       XFOIL         Version 6.99
  
 Calculated polar for: windex1200 originalprofil                       
  
 1 1 Reynolds number fixed          Mach number fixed         
  
 xtrf =   1.000 (top)        1.000 (bottom)  
 Mach =   0.000     Re =     1.500 e 6     Ncrit =   9.000  9.000
  
   alpha    CL        CD       CDp       CM     Top_Xtr  Bot_Xtr  Top_Itr  Bot_Itr
  ------ -------- --------- --------- -------- -------- -------- -------- --------
  -4.000  -0.2081   0.00951   0.00167  -0.0272   0.5979   0.0290  46.9697 160.0895
  -3.800  -0.1857   0.00935   0.00159  -0.0273   0.5964   0.0311  47.1351 160.6114
  -3.600  -0.1631   0.00922   0.00152  -0.0274   0.5947   0.0335  47.3191 161.2096
  -3.400  -0.1407   0.00907   0.00144  -0.0275   0.5930   0.0377  47.5098 162.1241
  -3.200  -0.1185   0.00890   0.00136  -0.0276   0.5913   0.0468  47.6927 163.8560
  -3.000  -0.0965   0.00872   0.00129  -0.0277   0.5897   0.0654  47.8693 166.6907
  -2.800  -0.0740   0.00859   0.00123  -0.0279   0.5881   0.0770  48.0507 168.1936
  -2.600  -0.0520   0.00837   0.00115  -0.0280   0.5863   0.1008  48.2491 171.0706
  -2.400  -0.0309   0.00806   0.00107  -0.0280   0.5844   0.1506  48.4565 176.6763
  -2.200  -0.0099   0.00773   0.00097  -0.0280   0.5826   0.2085  48.6564 182.9528
  -2.000   0.0103   0.00732   0.00086  -0.0280   0.5809   0.2899  48.8489 191.6203
  -1.800   0.0299   0.00683   0.00075  -0.0279   0.5791   0.3911  49.0496 202.3204
  -1.600   0.0491   0.00626   0.00062  -0.0277   0.5770   0.5101  49.2866 214.9161
  -1.400   0.0681   0.00571   0.00054  -0.0274   0.5748   0.6278  49.5313 227.5974
  -1.200   0.0907   0.00562   0.00058  -0.0275   0.5728   0.6769  49.7632 233.0528
  -1.000   0.1142   0.00563   0.00060  -0.0278   0.5709   0.6953  49.9813 235.0532
  -0.800   0.1378   0.00563   0.00065  -0.0281   0.5686   0.7098  50.2424 236.6010
  -0.600   0.1616   0.00564   0.00067  -0.0284   0.5662   0.7181  50.5113 237.4873
  -0.400   0.1855   0.00566   0.00067  -0.0288   0.5641   0.7236  50.7557 238.0585
  -0.200   0.2091   0.00568   0.00067  -0.0291   0.5621   0.7272  50.9812 238.4379
   0.000   0.2331   0.00570   0.00068  -0.0295   0.5597   0.7319  51.2646 238.9358
   0.200   0.2567   0.00571   0.00071  -0.0298   0.5572   0.7379  51.5574 239.5581
   0.400   0.2803   0.00573   0.00073  -0.0301   0.5549   0.7442  51.8260 240.2162
   0.600   0.3039   0.00577   0.00075  -0.0304   0.5527   0.7492  52.0838 240.7460
   0.800   0.3277   0.00578   0.00076  -0.0308   0.5500   0.7531  52.4000 241.1507
   1.000   0.3513   0.00579   0.00078  -0.0311   0.5474   0.7568  52.7112 241.5335
   1.200   0.3750   0.00583   0.00077  -0.0315   0.5450   0.7601  52.9918 241.8816
   1.400   0.3987   0.00584   0.00079  -0.0318   0.5424   0.7627  53.3004 242.1483
   1.600   0.4223   0.00586   0.00080  -0.0322   0.5399   0.7651  53.6040 242.4038
   1.800   0.4459   0.00590   0.00080  -0.0326   0.5375   0.7676  53.8926 242.6627
   2.000   0.4696   0.00594   0.00080  -0.0330   0.5349   0.7696  54.1916 242.8734
   2.200   0.4933   0.00597   0.00080  -0.0334   0.5322   0.7711  54.5117 243.0261
   2.400   0.5167   0.00600   0.00081  -0.0337   0.5296   0.7724  54.8068 243.1626
   2.600   0.5402   0.00604   0.00082  -0.0341   0.5274   0.7736  55.0690 243.2831
   2.800   0.5639   0.00607   0.00083  -0.0345   0.5252   0.7747  55.3175 243.3995
   3.000   0.5875   0.00610   0.00084  -0.0349   0.5229   0.7758  55.5749 243.5139
   3.200   0.6109   0.00616   0.00085  -0.0353   0.5207   0.7769  55.8291 243.6260
   3.400   0.6343   0.00621   0.00086  -0.0357   0.5186   0.7780  56.0712 243.7441
   3.600   0.6580   0.00624   0.00088  -0.0361   0.5163   0.7791  56.3231 243.8597
   3.800   0.6815   0.00629   0.00089  -0.0365   0.5140   0.7801  56.5846 243.9666
   4.000   0.7048   0.00634   0.00090  -0.0369   0.5119   0.7811  56.8287 244.0720
   4.200   0.7280   0.00639   0.00092  -0.0373   0.5094   0.7822  57.1011 244.1798
   4.400   0.7515   0.00641   0.00093  -0.0377   0.5063   0.7832  57.4569 244.2910
   4.600   0.7746   0.00647   0.00094  -0.0380   0.5029   0.7844  57.8348 244.4089
   4.800   0.7979   0.00652   0.00095  -0.0384   0.4997   0.7856  58.1931 244.5389
   5.000   0.8212   0.00656   0.00096  -0.0388   0.4961   0.7870  58.5997 244.6812
   5.200   0.8441   0.00664   0.00097  -0.0391   0.4923   0.7884  59.0268 244.8278
   5.400   0.8676   0.00667   0.00097  -0.0396   0.4876   0.7897  59.5501 244.9677
   5.600   0.8904   0.00674   0.00098  -0.0399   0.4825   0.7910  60.1256 245.1039
   5.800   0.9133   0.00679   0.00098  -0.0402   0.4766   0.7923  60.7910 245.2452
   6.000   0.9362   0.00685   0.00099  -0.0406   0.4705   0.7938  61.4744 245.3984
   6.200   0.9589   0.00693   0.00100  -0.0409   0.4651   0.7954  62.0892 245.5648
   6.400   0.9818   0.00699   0.00101  -0.0412   0.4593   0.7971  62.7578 245.7425
   6.600   1.0044   0.00708   0.00103  -0.0416   0.4519   0.7988  63.6048 245.9270
   6.800   1.0264   0.00720   0.00105  -0.0418   0.4422   0.8006  64.7272 246.1079
   7.000   1.0477   0.00737   0.00109  -0.0419   0.4292   0.8024  66.2286 246.3019
   7.200   1.0680   0.00761   0.00116  -0.0419   0.4132   0.8045  68.0649 246.5245
   7.400   1.0881   0.00787   0.00124  -0.0419   0.3967   0.8069  69.9421 246.7769
   7.600   1.1072   0.00818   0.00135  -0.0418   0.3762   0.8094  72.2921 247.0431
   7.800   1.1245   0.00860   0.00150  -0.0414   0.3510   0.8121  75.1750 247.3197
   8.000   1.1395   0.00915   0.00172  -0.0407   0.3207   0.8153  78.6414 247.6586
   8.200   1.1531   0.00975   0.00196  -0.0398   0.2915   0.8188  81.9670 248.0318
   8.400   1.1649   0.01037   0.00222  -0.0387   0.2612   0.8225  85.4384 248.4227
   8.600   1.1730   0.01114   0.00252  -0.0370   0.2276   0.8274  89.3435 248.9429
   8.800   1.1779   0.01194   0.00284  -0.0349   0.1978   0.8327  92.8252 249.5224
   9.000   1.1792   0.01268   0.00310  -0.0322   0.1755   0.8396  95.4605 250.2695
   9.200   1.1735   0.01359   0.00340  -0.0285   0.1577   0.8491  97.5940 251.3178
   9.400   1.1704   0.01475   0.00389  -0.0260   0.1406   0.8597  99.6771 252.5022
   9.600   1.1692   0.01598   0.00448  -0.0240   0.1247   0.8696 101.6565 253.6257
   9.800   1.1689   0.01723   0.00510  -0.0221   0.1109   0.8794 103.4096 254.7044
  10.000   1.1714   0.01837   0.00568  -0.0206   0.1011   0.8887 104.6648 255.7410
  10.200   1.1743   0.01950   0.00627  -0.0192   0.0919   0.8982 105.8594 256.8159
  10.400   1.1765   0.02069   0.00689  -0.0178   0.0821   0.9083 107.1838 257.9784
  10.600   1.1756   0.02204   0.00763  -0.0161   0.0694   0.9214 109.0136 259.4896
  10.800   1.1762   0.02380   0.00879  -0.0157   0.0512   0.9542 111.9133 263.2619
  11.000   1.1891   0.02557   0.01005  -0.0176   0.0395   1.0000 114.0570 270.0000
  11.200   1.1928   0.02691   0.01083  -0.0168   0.0328   1.0000 115.4805 270.0000
  11.400   1.1968   0.02824   0.01161  -0.0160   0.0281   1.0000 116.6397 270.0000
  11.600   1.2025   0.02945   0.01231  -0.0154   0.0255   1.0000 117.3298 270.0000
  11.800   1.2085   0.03065   0.01302  -0.0148   0.0239   1.0000 117.7979 270.0000
  12.000   1.2155   0.03179   0.01368  -0.0143   0.0228   1.0000 118.1235 270.0000
  12.200   1.2232   0.03289   0.01433  -0.0138   0.0221   1.0000 118.3696 270.0000
  12.400   1.2306   0.03405   0.01503  -0.0134   0.0214   1.0000 118.5957 270.0000
  12.600   1.2375   0.03527   0.01577  -0.0130   0.0207   1.0000 118.8017 270.0000
  12.800   1.2434   0.03660   0.01659  -0.0125   0.0201   1.0000 119.0037 270.0000
  13.000   1.2517   0.03774   0.01728  -0.0122   0.0198   1.0000 119.1172 270.0000
  13.200   1.2594   0.03896   0.01803  -0.0120   0.0195   1.0000 119.2395 270.0000
  13.400   1.2669   0.04019   0.01880  -0.0117   0.0191   1.0000 119.3632 270.0000
  13.600   1.2738   0.04150   0.01963  -0.0114   0.0188   1.0000 119.4820 270.0000
  13.800   1.2805   0.04285   0.02049  -0.0112   0.0185   1.0000 119.5981 270.0000
  14.000   1.2864   0.04428   0.02141  -0.0109   0.0182   1.0000 119.7151 270.0000
  14.200   1.2916   0.04581   0.02241  -0.0107   0.0178   1.0000 119.8426 270.0000
  14.400   1.2957   0.04746   0.02350  -0.0104   0.0175   1.0000 119.9753 270.0000
  14.600   1.3020   0.04891   0.02447  -0.0103   0.0173   1.0000 120.0507 270.0000
  14.800   1.3088   0.05034   0.02540  -0.0102   0.0171   1.0000 120.1261 270.0000
  15.000   1.3152   0.05183   0.02639  -0.0102   0.0169   1.0000 120.2070 270.0000
  15.200   1.3210   0.05340   0.02744  -0.0101   0.0167   1.0000 120.2861 270.0000
  15.400   1.3265   0.05500   0.02852  -0.0101   0.0166   1.0000 120.3589 270.0000
  15.600   1.3315   0.05667   0.02967  -0.0101   0.0164   1.0000 120.4259 270.0000
  15.800   1.3364   0.05839   0.03085  -0.0101   0.0162   1.0000 120.4965 270.0000
  16.000   1.3411   0.06014   0.03207  -0.0102   0.0161   1.0000 120.5697 270.0000
  16.200   1.3449   0.06200   0.03339  -0.0103   0.0159   1.0000 120.6431 270.0000
  16.400   1.3482   0.06394   0.03477  -0.0104   0.0157   1.0000 120.7167 270.0000
  16.600   1.3506   0.06600   0.03628  -0.0106   0.0155   1.0000 120.7891 270.0000
  16.800   1.3517   0.06824   0.03795  -0.0108   0.0154   1.0000 120.8579 270.0000
  17.000   1.3517   0.07064   0.03977  -0.0110   0.0152   1.0000 120.9224 270.0000
  17.200   1.3504   0.07323   0.04178  -0.0113   0.0151   1.0000 120.9863 270.0000
  17.400   1.3529   0.07539   0.04342  -0.0116   0.0150   1.0000 121.0209 270.0000
  17.600   1.3564   0.07745   0.04497  -0.0120   0.0149   1.0000 121.0518 270.0000
  17.800   1.3597   0.07954   0.04656  -0.0124   0.0148   1.0000 121.0869 270.0000
  18.000   1.3624   0.08173   0.04825  -0.0129   0.0148   1.0000 121.1263 270.0000
  18.200   1.3652   0.08392   0.04995  -0.0134   0.0147   1.0000 121.1764 270.0000
  18.400   1.3682   0.08611   0.05167  -0.0139   0.0145   1.0000 121.2396 270.0000
  18.600   1.3708   0.08839   0.05347  -0.0145   0.0144   1.0000 121.3111 270.0000
  18.800   1.3732   0.09068   0.05531  -0.0151   0.0142   1.0000 121.3863 270.0000
  19.000   1.3752   0.09305   0.05724  -0.0158   0.0141   1.0000 121.4575 270.0000
  19.200   1.3764   0.09557   0.05934  -0.0165   0.0139   1.0000 121.5181 270.0000
  19.400   1.3773   0.09813   0.06152  -0.0173   0.0138   1.0000 121.5716 270.0000
  19.600   1.3780   0.10074   0.06379  -0.0181   0.0137   1.0000 121.6234 270.0000
  19.800   1.3781   0.10346   0.06619  -0.0190   0.0136   1.0000 121.6744 270.0000
  20.000   1.3778   0.10625   0.06872  -0.0200   0.0135   1.0000 121.7260 270.0000
