  
       XFOIL         Version 6.99
  
 Calculated polar for: windex1200 originalprofil                       
  
 1 1 Reynolds number fixed          Mach number fixed         
  
 xtrf =   1.000 (top)        1.000 (bottom)  
 Mach =   0.000     Re =     1.500 e 6     Ncrit =   9.000
  
   alpha    CL        CD       CDp       CM     Top_Xtr  Bot_Xtr
  ------ -------- --------- --------- -------- -------- --------
  -5.000   0.5054   0.00889   0.00398  -0.1792   0.6063   0.3962
  -4.500   0.5720   0.00850   0.00395  -0.1823   0.6024   0.5374
  -4.000   0.6339   0.00835   0.00399  -0.1840   0.5986   0.6276
  -3.500   0.6911   0.00843   0.00410  -0.1845   0.5946   0.6610
  -3.000   0.7474   0.00854   0.00419  -0.1848   0.5904   0.6774
  -2.500   0.8035   0.00869   0.00432  -0.1851   0.5856   0.6944
  -2.000   0.8588   0.00885   0.00446  -0.1851   0.5806   0.7046
  -1.500   0.9143   0.00900   0.00460  -0.1853   0.5752   0.7123
  -1.000   0.9688   0.00916   0.00476  -0.1852   0.5698   0.7180
  -0.500   1.0238   0.00930   0.00490  -0.1853   0.5632   0.7227
   0.000   1.0784   0.00945   0.00506  -0.1853   0.5559   0.7264
   0.500   1.1336   0.00961   0.00520  -0.1855   0.5482   0.7309
   1.000   1.1871   0.00978   0.00539  -0.1853   0.5392   0.7338
   1.500   1.2408   0.01001   0.00558  -0.1852   0.5292   0.7371
   2.000   1.2949   0.01026   0.00579  -0.1852   0.5185   0.7401
   2.500   1.3480   0.01050   0.00604  -0.1850   0.5081   0.7422
   3.000   1.4006   0.01076   0.00631  -0.1848   0.4958   0.7443
   3.500   1.4520   0.01108   0.00661  -0.1843   0.4782   0.7470
   4.000   1.5024   0.01149   0.00694  -0.1837   0.4540   0.7495
   4.500   1.5465   0.01224   0.00750  -0.1820   0.4081   0.7512
   5.000   1.5745   0.01390   0.00872  -0.1777   0.3259   0.7530
   5.500   1.5854   0.01623   0.01057  -0.1705   0.2390   0.7551
   6.000   1.5852   0.01905   0.01296  -0.1618   0.1609   0.7573
   6.500   1.5865   0.02191   0.01553  -0.1539   0.1068   0.7595
   7.000   1.5947   0.02454   0.01805  -0.1474   0.0761   0.7610
   7.500   1.5905   0.02831   0.02168  -0.1401   0.0413   0.7624
   8.000   1.5938   0.03219   0.02555  -0.1349   0.0266   0.7639
   8.500   1.6047   0.03615   0.02957  -0.1318   0.0217   0.7655
   9.000   1.6198   0.03999   0.03349  -0.1295   0.0198   0.7673
   9.500   1.6326   0.04419   0.03777  -0.1274   0.0183   0.7688
  10.000   1.6453   0.04842   0.04210  -0.1254   0.0174   0.7701
  10.500   1.6539   0.05313   0.04692  -0.1234   0.0167   0.7713
  11.000   1.6608   0.05808   0.05198  -0.1216   0.0160   0.7726
  11.500   1.6703   0.06284   0.05686  -0.1200   0.0157   0.7740
  12.000   1.6788   0.06785   0.06200  -0.1187   0.0152   0.7755
  12.500   1.6861   0.07315   0.06740  -0.1177   0.0148   0.7769
  13.000   1.6906   0.07893   0.07330  -0.1168   0.0143   0.7782
  13.500   1.6903   0.08547   0.07997  -0.1162   0.0138   0.7794
  14.000   1.6986   0.09093   0.08556  -0.1160   0.0136   0.7805
  14.500   1.7059   0.09656   0.09133  -0.1159   0.0133   0.7817
  15.000   1.7114   0.10244   0.09734  -0.1162   0.0130   0.7831
