  
       XFOIL         Version 6.99
  
 Calculated polar for: windex1200 originalprofil                       
  
 1 1 Reynolds number fixed          Mach number fixed         
  
 xtrf =   1.000 (top)        1.000 (bottom)  
 Mach =   0.000     Re =     0.700 e 6     Ncrit =   9.000
  
   alpha    CL        CD       CDp       CM     Top_Xtr  Bot_Xtr
  ------ -------- --------- --------- -------- -------- --------
  -5.000   0.1499   0.01046   0.00366  -0.1143   0.6308   0.1369
  -4.500   0.2073   0.00926   0.00325  -0.1163   0.6266   0.3577
  -4.000   0.2661   0.00830   0.00300  -0.1182   0.6222   0.5807
  -3.500   0.3239   0.00830   0.00320  -0.1187   0.6175   0.6775
  -3.000   0.3820   0.00860   0.00345  -0.1190   0.6131   0.7108
  -2.500   0.4402   0.00878   0.00355  -0.1195   0.6081   0.7253
  -2.000   0.4971   0.00902   0.00379  -0.1197   0.6036   0.7372
  -1.500   0.5535   0.00927   0.00403  -0.1197   0.5988   0.7480
  -1.000   0.6105   0.00945   0.00419  -0.1200   0.5940   0.7559
  -0.500   0.6675   0.00958   0.00430  -0.1204   0.5891   0.7613
   0.000   0.7244   0.00971   0.00444  -0.1208   0.5843   0.7663
   0.500   0.7814   0.00983   0.00454  -0.1213   0.5795   0.7707
   1.000   0.8385   0.00989   0.00462  -0.1219   0.5742   0.7746
   1.500   0.8952   0.01001   0.00473  -0.1223   0.5695   0.7773
   2.000   0.9514   0.01006   0.00483  -0.1227   0.5633   0.7807
   2.500   1.0078   0.01012   0.00492  -0.1233   0.5571   0.7840
   3.000   1.0631   0.01023   0.00507  -0.1235   0.5516   0.7861
   3.500   1.1176   0.01030   0.00518  -0.1236   0.5437   0.7887
   4.000   1.1717   0.01036   0.00528  -0.1238   0.5333   0.7920
   4.500   1.2236   0.01053   0.00549  -0.1234   0.5218   0.7941
   5.000   1.2735   0.01080   0.00577  -0.1227   0.5082   0.7963
   5.500   1.3222   0.01105   0.00606  -0.1218   0.4916   0.7987
   6.000   1.3706   0.01132   0.00636  -0.1210   0.4734   0.8018
   6.500   1.4150   0.01165   0.00674  -0.1194   0.4489   0.8035
   7.000   1.4454   0.01235   0.00734  -0.1152   0.4091   0.8057
   7.500   1.4585   0.01377   0.00851  -0.1084   0.3506   0.8088
   8.000   1.4543   0.01618   0.01055  -0.0997   0.2803   0.8122
   8.500   1.4367   0.01954   0.01356  -0.0902   0.2099   0.8149
   9.000   1.4191   0.02383   0.01763  -0.0829   0.1563   0.8182
   9.500   1.4064   0.02909   0.02271  -0.0786   0.1138   0.8215
  10.000   1.3960   0.03453   0.02802  -0.0751   0.0791   0.8236
  10.500   1.3801   0.04071   0.03401  -0.0719   0.0435   0.8262
  11.000   1.3818   0.04558   0.03890  -0.0699   0.0332   0.8293
  11.500   1.3886   0.05013   0.04352  -0.0685   0.0292   0.8316
  12.000   1.3981   0.05461   0.04811  -0.0674   0.0271   0.8338
  12.500   1.4042   0.05968   0.05328  -0.0666   0.0256   0.8366
  13.000   1.4147   0.06451   0.05823  -0.0662   0.0246   0.8397
  13.500   1.4227   0.06967   0.06354  -0.0659   0.0237   0.8420
  14.000   1.4264   0.07557   0.06956  -0.0659   0.0229   0.8449
  14.500   1.4298   0.08171   0.07584  -0.0663   0.0221   0.8479
  15.000   1.4374   0.08741   0.08168  -0.0669   0.0215   0.8506
