  
       XFOIL         Version 6.99
  
 Calculated polar for: windex1200 originalprofil                       
  
 1 1 Reynolds number fixed          Mach number fixed         
  
 xtrf =   1.000 (top)        1.000 (bottom)  
 Mach =   0.000     Re =     0.000 e 6     Ncrit =   9.000
  
   alpha    CL        CD       CDp       CM     Top_Xtr  Bot_Xtr
  ------ -------- --------- --------- -------- -------- --------
  -5.000  -1.1148   0.00000  -0.00039   0.1035   0.0000   0.0000
  -4.500  -1.0540   0.00000  -0.00038   0.1028   0.0000   0.0000
  -4.000  -0.9930   0.00000  -0.00037   0.1019   0.0000   0.0000
  -3.500  -0.9320   0.00000  -0.00036   0.1011   0.0000   0.0000
  -3.000  -0.8709   0.00000  -0.00034   0.1002   0.0000   0.0000
  -2.500  -0.8098   0.00000  -0.00033   0.0992   0.0000   0.0000
  -2.000  -0.7486   0.00000  -0.00032   0.0982   0.0000   0.0000
  -1.500  -0.6873   0.00000  -0.00031   0.0972   0.0000   0.0000
  -1.000  -0.6260   0.00000  -0.00030   0.0961   0.0000   0.0000
  -0.500  -0.5646   0.00000  -0.00029   0.0951   0.0000   0.0000
   0.000  -0.5032   0.00000  -0.00028   0.0939   0.0000   0.0000
   0.500  -0.4417   0.00000  -0.00028   0.0927   0.0000   0.0000
   1.000  -0.3803   0.00000  -0.00027   0.0915   0.0000   0.0000
   1.500  -0.3187   0.00000  -0.00026   0.0903   0.0000   0.0000
   2.000  -0.2572   0.00000  -0.00025   0.0890   0.0000   0.0000
   2.500  -0.1957   0.00000  -0.00025   0.0877   0.0000   0.0000
   3.000  -0.1341   0.00000  -0.00024   0.0864   0.0000   0.0000
   3.500  -0.0725   0.00000  -0.00024   0.0850   0.0000   0.0000
   4.000  -0.0109   0.00000  -0.00023   0.0836   0.0000   0.0000
   4.500   0.0507   0.00000  -0.00023   0.0821   0.0000   0.0000
   5.000   0.1122   0.00000  -0.00023   0.0807   0.0000   0.0000
   5.500   0.1738   0.00000  -0.00023   0.0791   0.0000   0.0000
   6.000   0.2354   0.00000  -0.00022   0.0776   0.0000   0.0000
   6.500   0.2969   0.00000  -0.00022   0.0760   0.0000   0.0000
   7.000   0.3584   0.00000  -0.00022   0.0744   0.0000   0.0000
   7.500   0.4199   0.00000  -0.00022   0.0728   0.0000   0.0000
   8.000   0.4814   0.00000  -0.00022   0.0711   0.0000   0.0000
   8.500   0.5428   0.00000  -0.00023   0.0694   0.0000   0.0000
   9.000   0.6042   0.00000  -0.00023   0.0677   0.0000   0.0000
   9.500   0.6655   0.00000  -0.00023   0.0659   0.0000   0.0000
  10.000   0.7268   0.00000  -0.00024   0.0642   0.0000   0.0000
  10.500   0.7880   0.00000  -0.00024   0.0623   0.0000   0.0000
  11.000   0.8492   0.00000  -0.00024   0.0605   0.0000   0.0000
  11.500   0.9103   0.00000  -0.00025   0.0586   0.0000   0.0000
  12.000   0.9713   0.00000  -0.00026   0.0568   0.0000   0.0000
  12.500   1.0323   0.00000  -0.00026   0.0548   0.0000   0.0000
  13.000   1.0931   0.00000  -0.00027   0.0529   0.0000   0.0000
  13.500   1.1539   0.00000  -0.00028   0.0509   0.0000   0.0000
  14.000   1.2146   0.00000  -0.00029   0.0490   0.0000   0.0000
  14.500   1.2753   0.00000  -0.00030   0.0469   0.0000   0.0000
  15.000   1.3358   0.00000  -0.00031   0.0449   0.0000   0.0000
