  
       XFOIL         Version 6.99
  
 Calculated polar for: windex1200 originalprofil                       
  
 1 1 Reynolds number fixed          Mach number fixed         
  
 xtrf =   1.000 (top)        1.000 (bottom)  
 Mach =   0.000     Re =     1.500 e 6     Ncrit =   9.000
  
   alpha    CL        CD       CDp       CM     Top_Xtr  Bot_Xtr
  ------ -------- --------- --------- -------- -------- --------
  -5.000   0.7568   0.01354   0.00925  -0.1981   0.6087   0.5548
  -4.500   0.8047   0.01383   0.00956  -0.1971   0.6047   0.5817
  -4.000   0.8526   0.01409   0.00982  -0.1961   0.5998   0.6045
  -3.500   0.9027   0.01431   0.01006  -0.1954   0.5956   0.6241
  -3.000   0.9509   0.01468   0.01046  -0.1944   0.5919   0.6392
  -2.500   0.9989   0.01506   0.01085  -0.1934   0.5871   0.6520
  -2.000   1.0469   0.01540   0.01114  -0.1924   0.5807   0.6613
  -1.500   1.0954   0.01578   0.01156  -0.1915   0.5762   0.6668
  -1.000   1.1407   0.01629   0.01206  -0.1901   0.5671   0.6712
  -0.500   1.1889   0.01666   0.01244  -0.1891   0.5603   0.6761
   0.000   1.2360   0.01708   0.01285  -0.1881   0.5510   0.6802
   0.500   1.2824   0.01753   0.01331  -0.1868   0.5406   0.6827
   1.000   1.3259   0.01809   0.01383  -0.1851   0.5262   0.6850
   1.500   1.3702   0.01862   0.01433  -0.1836   0.5148   0.6878
   2.000   1.4150   0.01913   0.01480  -0.1822   0.5023   0.6911
   2.500   1.4593   0.01968   0.01532  -0.1807   0.4873   0.6945
   3.000   1.5008   0.02034   0.01595  -0.1789   0.4685   0.6964
   3.500   1.5391   0.02120   0.01671  -0.1765   0.4370   0.6976
   4.000   1.5654   0.02274   0.01794  -0.1725   0.3776   0.6988
   4.500   1.5738   0.02543   0.02011  -0.1661   0.2891   0.7001
   5.000   1.5731   0.02893   0.02314  -0.1589   0.2054   0.7017
   5.500   1.5735   0.03264   0.02650  -0.1523   0.1410   0.7034
   6.000   1.5757   0.03650   0.03014  -0.1465   0.0959   0.7054
   6.500   1.5816   0.04039   0.03389  -0.1415   0.0634   0.7078
   7.000   1.5794   0.04542   0.03880  -0.1365   0.0345   0.7098
   7.500   1.5882   0.04982   0.04320  -0.1332   0.0236   0.7108
   8.000   1.6002   0.05410   0.04754  -0.1305   0.0196   0.7116
   8.500   1.6163   0.05808   0.05163  -0.1285   0.0184   0.7124
   9.000   1.6293   0.06246   0.05610  -0.1265   0.0174   0.7133
   9.500   1.6398   0.06715   0.06089  -0.1246   0.0163   0.7143
  10.000   1.6479   0.07221   0.06608  -0.1228   0.0153   0.7153
  10.500   1.6587   0.07702   0.07101  -0.1213   0.0149   0.7163
  11.000   1.6693   0.08190   0.07601  -0.1201   0.0146   0.7174
  11.500   1.6793   0.08693   0.08115  -0.1190   0.0142   0.7187
  12.000   1.6892   0.09202   0.08635  -0.1182   0.0137   0.7200
  12.500   1.6971   0.09743   0.09186  -0.1176   0.0132   0.7211
  13.000   1.7026   0.10322   0.09777  -0.1172   0.0128   0.7221
  13.500   1.7061   0.10934   0.10402  -0.1172   0.0124   0.7229
  14.000   1.7058   0.11602   0.11085  -0.1175   0.0120   0.7236
  14.500   1.7005   0.12342   0.11844  -0.1183   0.0116   0.7240
  15.000   1.7036   0.12953   0.12469  -0.1191   0.0114   0.7247
