  
       XFOIL         Version 6.99
  
 Calculated polar for: windex1200 originalprofil                       
  
 1 1 Reynolds number fixed          Mach number fixed         
  
 xtrf =   1.000 (top)        1.000 (bottom)  
 Mach =   0.000     Re =     0.000 e 6     Ncrit =   9.000
  
   alpha    CL        CD       CDp       CM     Top_Xtr  Bot_Xtr
  ------ -------- --------- --------- -------- -------- --------
  -5.000  -1.8370   0.00000  -0.00036   0.2205   0.0000   0.0000
  -4.500  -1.7777   0.00000  -0.00035   0.2203   0.0000   0.0000
  -4.000  -1.7183   0.00000  -0.00033   0.2199   0.0000   0.0000
  -3.500  -1.6587   0.00000  -0.00031   0.2196   0.0000   0.0000
  -3.000  -1.5991   0.00000  -0.00030   0.2191   0.0000   0.0000
  -2.500  -1.5393   0.00000  -0.00028   0.2187   0.0000   0.0000
  -2.000  -1.4794   0.00000  -0.00027   0.2181   0.0000   0.0000
  -1.500  -1.4194   0.00000  -0.00026   0.2175   0.0000   0.0000
  -1.000  -1.3592   0.00000  -0.00024   0.2169   0.0000   0.0000
  -0.500  -1.2990   0.00000  -0.00023   0.2162   0.0000   0.0000
   0.000  -1.2387   0.00000  -0.00022   0.2154   0.0000   0.0000
   0.500  -1.1783   0.00000  -0.00021   0.2146   0.0000   0.0000
   1.000  -1.1178   0.00000  -0.00020   0.2137   0.0000   0.0000
   1.500  -1.0572   0.00000  -0.00019   0.2128   0.0000   0.0000
   2.000  -0.9965   0.00000  -0.00018   0.2118   0.0000   0.0000
   2.500  -0.9357   0.00000  -0.00017   0.2108   0.0000   0.0000
   3.000  -0.8749   0.00000  -0.00016   0.2097   0.0000   0.0000
   3.500  -0.8140   0.00000  -0.00016   0.2085   0.0000   0.0000
   4.000  -0.7531   0.00000  -0.00015   0.2073   0.0000   0.0000
   4.500  -0.6921   0.00000  -0.00015   0.2061   0.0000   0.0000
   5.000  -0.6310   0.00000  -0.00014   0.2048   0.0000   0.0000
   5.500  -0.5699   0.00000  -0.00014   0.2034   0.0000   0.0000
   6.000  -0.5088   0.00000  -0.00013   0.2020   0.0000   0.0000
   6.500  -0.4476   0.00000  -0.00013   0.2006   0.0000   0.0000
   7.000  -0.3864   0.00000  -0.00013   0.1991   0.0000   0.0000
   7.500  -0.3251   0.00000  -0.00013   0.1975   0.0000   0.0000
   8.000  -0.2639   0.00000  -0.00013   0.1959   0.0000   0.0000
   8.500  -0.2026   0.00000  -0.00013   0.1943   0.0000   0.0000
   9.000  -0.1413   0.00000  -0.00013   0.1926   0.0000   0.0000
   9.500  -0.0799   0.00000  -0.00014   0.1908   0.0000   0.0000
  10.000  -0.0186   0.00000  -0.00014   0.1890   0.0000   0.0000
  10.500   0.0427   0.00000  -0.00015   0.1872   0.0000   0.0000
  11.000   0.1040   0.00000  -0.00015   0.1853   0.0000   0.0000
  11.500   0.1654   0.00000  -0.00016   0.1833   0.0000   0.0000
  12.000   0.2267   0.00000  -0.00016   0.1813   0.0000   0.0000
  12.500   0.2879   0.00000  -0.00017   0.1793   0.0000   0.0000
  13.000   0.3492   0.00000  -0.00018   0.1772   0.0000   0.0000
  13.500   0.4104   0.00000  -0.00019   0.1751   0.0000   0.0000
  14.000   0.4717   0.00000  -0.00020   0.1730   0.0000   0.0000
  14.500   0.5328   0.00000  -0.00021   0.1708   0.0000   0.0000
  15.000   0.5940   0.00000  -0.00022   0.1685   0.0000   0.0000
