  
       XFOIL         Version 6.99
  
 Calculated polar for: windex1200 originalprofil                       
  
 1 1 Reynolds number fixed          Mach number fixed         
  
 xtrf =   1.000 (top)        1.000 (bottom)  
 Mach =   0.000     Re =     0.000 e 6     Ncrit =   9.000
  
   alpha    CL        CD       CDp       CM     Top_Xtr  Bot_Xtr
  ------ -------- --------- --------- -------- -------- --------
  -5.000   0.3811   0.00000  -0.00029  -0.1437   0.0000   0.0000
  -4.500   0.4428   0.00000  -0.00028  -0.1451   0.0000   0.0000
  -4.000   0.5044   0.00000  -0.00027  -0.1465   0.0000   0.0000
  -3.500   0.5660   0.00000  -0.00027  -0.1479   0.0000   0.0000
  -3.000   0.6275   0.00000  -0.00026  -0.1492   0.0000   0.0000
  -2.500   0.6890   0.00000  -0.00026  -0.1506   0.0000   0.0000
  -2.000   0.7504   0.00000  -0.00025  -0.1520   0.0000   0.0000
  -1.500   0.8118   0.00000  -0.00025  -0.1534   0.0000   0.0000
  -1.000   0.8731   0.00000  -0.00024  -0.1547   0.0000   0.0000
  -0.500   0.9344   0.00000  -0.00024  -0.1561   0.0000   0.0000
   0.000   0.9956   0.00000  -0.00024  -0.1575   0.0000   0.0000
   0.500   1.0567   0.00000  -0.00024  -0.1588   0.0000   0.0000
   1.000   1.1177   0.00000  -0.00024  -0.1602   0.0000   0.0000
   1.500   1.1786   0.00000  -0.00024  -0.1615   0.0000   0.0000
   2.000   1.2395   0.00000  -0.00024  -0.1629   0.0000   0.0000
   2.500   1.3002   0.00000  -0.00024  -0.1642   0.0000   0.0000
   3.000   1.3609   0.00000  -0.00024  -0.1656   0.0000   0.0000
   3.500   1.4214   0.00000  -0.00024  -0.1669   0.0000   0.0000
   4.000   1.4819   0.00000  -0.00025  -0.1682   0.0000   0.0000
   4.500   1.5422   0.00000  -0.00025  -0.1695   0.0000   0.0000
   5.000   1.6024   0.00000  -0.00026  -0.1709   0.0000   0.0000
   5.500   1.6625   0.00000  -0.00026  -0.1722   0.0000   0.0000
   6.000   1.7224   0.00000  -0.00027  -0.1735   0.0000   0.0000
   6.500   1.7823   0.00000  -0.00028  -0.1748   0.0000   0.0000
   7.000   1.8420   0.00000  -0.00028  -0.1760   0.0000   0.0000
   7.500   1.9015   0.00000  -0.00029  -0.1773   0.0000   0.0000
   8.000   1.9609   0.00000  -0.00030  -0.1786   0.0000   0.0000
   8.500   2.0202   0.00000  -0.00031  -0.1798   0.0000   0.0000
   9.000   2.0793   0.00000  -0.00033  -0.1811   0.0000   0.0000
   9.500   2.1382   0.00000  -0.00034  -0.1823   0.0000   0.0000
  10.000   2.1970   0.00000  -0.00035  -0.1835   0.0000   0.0000
  10.500   2.2556   0.00000  -0.00036  -0.1848   0.0000   0.0000
  11.000   2.3141   0.00000  -0.00038  -0.1860   0.0000   0.0000
  11.500   2.3723   0.00000  -0.00039  -0.1872   0.0000   0.0000
  12.000   2.4304   0.00000  -0.00041  -0.1883   0.0000   0.0000
  12.500   2.4883   0.00000  -0.00043  -0.1895   0.0000   0.0000
  13.000   2.5460   0.00000  -0.00044  -0.1907   0.0000   0.0000
  13.500   2.6036   0.00000  -0.00046  -0.1918   0.0000   0.0000
  14.000   2.6609   0.00000  -0.00048  -0.1929   0.0000   0.0000
  14.500   2.7180   0.00000  -0.00050  -0.1940   0.0000   0.0000
  15.000   2.7749   0.00000  -0.00052  -0.1951   0.0000   0.0000
