  
       XFOIL         Version 6.99
  
 Calculated polar for: windex1200 originalprofil                       
  
 1 1 Reynolds number fixed          Mach number fixed         
  
 xtrf =   1.000 (top)        1.000 (bottom)  
 Mach =   0.000     Re =     0.000 e 6     Ncrit =   9.000
  
   alpha    CL        CD       CDp       CM     Top_Xtr  Bot_Xtr
  ------ -------- --------- --------- -------- -------- --------
  -5.000   1.1272   0.00000  -0.00015  -0.2676   0.0000   0.0000
  -4.500   1.1880   0.00000  -0.00014  -0.2690   0.0000   0.0000
  -4.000   1.2488   0.00000  -0.00014  -0.2704   0.0000   0.0000
  -3.500   1.3095   0.00000  -0.00013  -0.2718   0.0000   0.0000
  -3.000   1.3700   0.00000  -0.00012  -0.2731   0.0000   0.0000
  -2.500   1.4305   0.00000  -0.00012  -0.2744   0.0000   0.0000
  -2.000   1.4909   0.00000  -0.00012  -0.2757   0.0000   0.0000
  -1.500   1.5511   0.00000  -0.00011  -0.2770   0.0000   0.0000
  -1.000   1.6112   0.00000  -0.00011  -0.2783   0.0000   0.0000
  -0.500   1.6712   0.00000  -0.00011  -0.2795   0.0000   0.0000
   0.000   1.7311   0.00000  -0.00011  -0.2808   0.0000   0.0000
   0.500   1.7908   0.00000  -0.00010  -0.2820   0.0000   0.0000
   1.000   1.8504   0.00000  -0.00010  -0.2831   0.0000   0.0000
   1.500   1.9099   0.00000  -0.00010  -0.2843   0.0000   0.0000
   2.000   1.9692   0.00000  -0.00011  -0.2854   0.0000   0.0000
   2.500   2.0284   0.00000  -0.00011  -0.2865   0.0000   0.0000
   3.000   2.0874   0.00000  -0.00011  -0.2876   0.0000   0.0000
   3.500   2.1463   0.00000  -0.00011  -0.2886   0.0000   0.0000
   4.000   2.2049   0.00000  -0.00012  -0.2897   0.0000   0.0000
   4.500   2.2635   0.00000  -0.00012  -0.2907   0.0000   0.0000
   5.000   2.3218   0.00000  -0.00013  -0.2916   0.0000   0.0000
   5.500   2.3800   0.00000  -0.00013  -0.2926   0.0000   0.0000
   6.000   2.4380   0.00000  -0.00014  -0.2935   0.0000   0.0000
   6.500   2.4958   0.00000  -0.00015  -0.2944   0.0000   0.0000
   7.000   2.5534   0.00000  -0.00016  -0.2953   0.0000   0.0000
   7.500   2.6108   0.00000  -0.00017  -0.2961   0.0000   0.0000
   8.000   2.6680   0.00000  -0.00018  -0.2970   0.0000   0.0000
   8.500   2.7250   0.00000  -0.00019  -0.2977   0.0000   0.0000
   9.000   2.7818   0.00000  -0.00020  -0.2985   0.0000   0.0000
   9.500   2.8384   0.00000  -0.00021  -0.2992   0.0000   0.0000
  10.000   2.8948   0.00000  -0.00022  -0.2999   0.0000   0.0000
  10.500   2.9510   0.00000  -0.00024  -0.3006   0.0000   0.0000
  11.000   3.0069   0.00000  -0.00025  -0.3013   0.0000   0.0000
  11.500   3.0626   0.00000  -0.00027  -0.3019   0.0000   0.0000
  12.000   3.1181   0.00000  -0.00028  -0.3025   0.0000   0.0000
  12.500   3.1733   0.00000  -0.00030  -0.3030   0.0000   0.0000
  13.000   3.2283   0.00000  -0.00032  -0.3036   0.0000   0.0000
  13.500   3.2830   0.00000  -0.00034  -0.3040   0.0000   0.0000
  14.000   3.3375   0.00000  -0.00036  -0.3045   0.0000   0.0000
  14.500   3.3918   0.00000  -0.00038  -0.3050   0.0000   0.0000
  15.000   3.4458   0.00000  -0.00040  -0.3054   0.0000   0.0000
