  
       XFOIL         Version 6.99
  
 Calculated polar for: windex1200 originalprofil                       
  
 1 1 Reynolds number fixed          Mach number fixed         
  
 xtrf =   1.000 (top)        1.000 (bottom)  
 Mach =   0.000     Re =     0.700 e 6     Ncrit =   9.000
  
   alpha    CL        CD       CDp       CM     Top_Xtr  Bot_Xtr
  ------ -------- --------- --------- -------- -------- --------
  -5.000   0.3289   0.00877   0.00309  -0.1335   0.6347   0.4307
  -4.500   0.3851   0.00834   0.00306  -0.1342   0.6307   0.5680
  -4.000   0.4415   0.00846   0.00337  -0.1344   0.6262   0.6483
  -3.500   0.4993   0.00881   0.00361  -0.1349   0.6214   0.6738
  -3.000   0.5562   0.00912   0.00391  -0.1351   0.6168   0.6858
  -2.500   0.6124   0.00947   0.00424  -0.1352   0.6116   0.6969
  -2.000   0.6688   0.00983   0.00454  -0.1354   0.6066   0.7080
  -1.500   0.7247   0.01012   0.00482  -0.1355   0.6017   0.7136
  -1.000   0.7810   0.01027   0.00496  -0.1359   0.5965   0.7208
  -0.500   0.8361   0.01036   0.00504  -0.1360   0.5914   0.7251
   0.000   0.8919   0.01054   0.00520  -0.1363   0.5863   0.7304
   0.500   0.9465   0.01063   0.00532  -0.1365   0.5810   0.7357
   1.000   1.0006   0.01068   0.00538  -0.1365   0.5756   0.7399
   1.500   1.0556   0.01087   0.00556  -0.1368   0.5700   0.7447
   2.000   1.1072   0.01086   0.00563  -0.1364   0.5636   0.7480
   2.500   1.1600   0.01099   0.00574  -0.1362   0.5574   0.7520
   3.000   1.2071   0.01098   0.00583  -0.1350   0.5476   0.7550
   3.500   1.2502   0.01105   0.00593  -0.1330   0.5353   0.7582
   4.000   1.2882   0.01127   0.00614  -0.1300   0.5231   0.7616
   4.500   1.3231   0.01158   0.00645  -0.1265   0.5097   0.7640
   5.000   1.3564   0.01206   0.00695  -0.1230   0.4933   0.7667
   5.500   1.3913   0.01260   0.00754  -0.1200   0.4769   0.7691
   6.000   1.4240   0.01328   0.00823  -0.1167   0.4552   0.7712
   6.500   1.4442   0.01441   0.00927  -0.1117   0.4199   0.7733
   7.000   1.4551   0.01618   0.01087  -0.1057   0.3741   0.7751
   7.500   1.4489   0.01900   0.01340  -0.0979   0.3128   0.7773
   8.000   1.4332   0.02271   0.01678  -0.0898   0.2471   0.7794
   8.500   1.4102   0.02753   0.02127  -0.0822   0.1819   0.7808
   9.000   1.3951   0.03282   0.02635  -0.0770   0.1341   0.7817
   9.500   1.3871   0.03824   0.03160  -0.0735   0.0960   0.7826
  10.000   1.3755   0.04430   0.03745  -0.0705   0.0546   0.7838
  10.500   1.3727   0.04977   0.04287  -0.0684   0.0348   0.7851
  11.000   1.3799   0.05444   0.04760  -0.0670   0.0286   0.7862
  11.500   1.3906   0.05892   0.05219  -0.0659   0.0263   0.7872
  12.000   1.3977   0.06397   0.05734  -0.0651   0.0243   0.7883
  12.500   1.4036   0.06941   0.06294  -0.0646   0.0232   0.7893
  13.000   1.4146   0.07436   0.06806  -0.0644   0.0227   0.7905
  13.500   1.4236   0.07972   0.07358  -0.0645   0.0221   0.7917
  14.000   1.4304   0.08551   0.07954  -0.0648   0.0215   0.7928
  14.500   1.4371   0.09138   0.08556  -0.0654   0.0210   0.7940
  15.000   1.4423   0.09757   0.09191  -0.0662   0.0205   0.7955
