  
       XFOIL         Version 6.99
  
 Calculated polar for: windex1200 originalprofil                       
  
 1 1 Reynolds number fixed          Mach number fixed         
  
 xtrf =   1.000 (top)        1.000 (bottom)  
 Mach =   0.000     Re =     1.500 e 6     Ncrit =   9.000
  
   alpha    CL        CD       CDp       CM     Top_Xtr  Bot_Xtr
  ------ -------- --------- --------- -------- -------- --------
  -5.000  -0.8188   0.01485   0.00834   0.0496   0.6017   0.0140
  -4.500  -0.7726   0.01427   0.00771   0.0512   0.5972   0.0147
  -4.000  -0.7265   0.01367   0.00707   0.0527   0.5938   0.0155
  -3.500  -0.6805   0.01301   0.00639   0.0544   0.5901   0.0167
  -3.000  -0.6343   0.01242   0.00579   0.0559   0.5857   0.0186
  -2.500  -0.5879   0.01191   0.00524   0.0575   0.5806   0.0211
  -2.000  -0.5408   0.01144   0.00479   0.0590   0.5767   0.0237
  -1.500  -0.4944   0.01097   0.00435   0.0605   0.5721   0.0274
  -1.000  -0.4483   0.01056   0.00391   0.0622   0.5667   0.0314
  -0.500  -0.4058   0.01010   0.00355   0.0646   0.5619   0.0498
   0.000  -0.3647   0.00966   0.00326   0.0673   0.5571   0.0829
   0.500  -0.3292   0.00884   0.00286   0.0708   0.5520   0.1949
   1.000  -0.3051   0.00754   0.00233   0.0763   0.5470   0.4029
   1.500  -0.2958   0.00548   0.00171   0.0847   0.5428   0.7802
   2.000  -0.2360   0.00595   0.00214   0.0841   0.5376   0.7995
   2.500  -0.1748   0.00667   0.00291   0.0835   0.5324   0.8172
   3.000  -0.1129   0.00718   0.00346   0.0825   0.5283   0.8246
   3.500  -0.0529   0.00731   0.00354   0.0815   0.5233   0.8268
   4.000   0.0063   0.00756   0.00374   0.0807   0.5172   0.8324
   4.500   0.0670   0.00792   0.00415   0.0798   0.5136   0.8371
   5.000   0.1257   0.00778   0.00398   0.0787   0.5088   0.8365
   5.500   0.1844   0.00775   0.00389   0.0775   0.5024   0.8361
   6.000   0.2436   0.00763   0.00378   0.0762   0.4986   0.8353
   6.500   0.3029   0.00753   0.00367   0.0748   0.4935   0.8344
   7.000   0.3620   0.00752   0.00362   0.0734   0.4841   0.8335
   7.500   0.4214   0.00752   0.00361   0.0720   0.4731   0.8330
   8.000   0.4808   0.00756   0.00367   0.0706   0.4631   0.8324
   8.500   0.5399   0.00768   0.00377   0.0691   0.4504   0.8320
   9.000   0.5988   0.00792   0.00398   0.0675   0.4300   0.8313
   9.500   0.6568   0.00839   0.00436   0.0659   0.3980   0.8305
  10.000   0.7130   0.00900   0.00486   0.0643   0.3596   0.8300
  10.500   0.7665   0.00986   0.00554   0.0626   0.3107   0.8298
  11.000   0.8125   0.01191   0.00722   0.0601   0.2264   0.8298
  11.500   0.8405   0.01488   0.00989   0.0581   0.1601   0.8294
  12.000   0.8277   0.01762   0.01247   0.0634   0.1263   0.8286
  12.500   0.8276   0.01987   0.01463   0.0681   0.1062   0.8277
  13.000   0.8336   0.02213   0.01679   0.0715   0.0854   0.8270
  13.500   0.8309   0.02514   0.01959   0.0749   0.0534   0.8261
  14.000   0.8394   0.02783   0.02219   0.0770   0.0354   0.8253
  14.500   0.8526   0.03046   0.02475   0.0785   0.0254   0.8245
  15.000   0.8742   0.03271   0.02703   0.0791   0.0232   0.8238
