  
       XFOIL         Version 6.99
  
 Calculated polar for: windex1200 originalprofil                       
  
 1 1 Reynolds number fixed          Mach number fixed         
  
 xtrf =   1.000 (top)        1.000 (bottom)  
 Mach =   0.000     Re =     0.300 e 6     Ncrit =   9.000
  
   alpha    CL        CD       CDp       CM     Top_Xtr  Bot_Xtr
  ------ -------- --------- --------- -------- -------- --------
  -4.500  -1.0668   0.04397   0.03833   0.0797   0.6210   0.0277
  -4.000  -1.0331   0.03611   0.02961   0.0839   0.6192   0.0273
  -3.500  -0.9653   0.03053   0.02325   0.0835   0.6175   0.0282
  -2.000  -0.7138   0.02317   0.01561   0.0705   0.6017   0.0365
  -1.500  -0.6660   0.02153   0.01396   0.0723   0.6000   0.0405
  -1.000  -0.6254   0.02013   0.01256   0.0749   0.5984   0.0466
   0.500  -0.5230   0.01432   0.00920   0.0813   0.5826   0.4968
