  
       XFOIL         Version 6.99
  
 Calculated polar for: windex1200 originalprofil                       
  
 1 1 Reynolds number fixed          Mach number fixed         
  
 xtrf =   1.000 (top)        1.000 (bottom)  
 Mach =   0.000     Re =     1.500 e 6     Ncrit =   9.000
  
   alpha    CL        CD       CDp       CM     Top_Xtr  Bot_Xtr
  ------ -------- --------- --------- -------- -------- --------
  -5.000  -1.1327   0.01619   0.01019   0.0959   0.5952   0.0111
  -4.500  -1.0901   0.01503   0.00895   0.0977   0.5915   0.0114
  -4.000  -1.0479   0.01359   0.00745   0.0997   0.5877   0.0122
  -3.500  -1.0034   0.01268   0.00649   0.1013   0.5833   0.0129
  -3.000  -0.9583   0.01187   0.00563   0.1028   0.5787   0.0136
  -2.500  -0.9126   0.01112   0.00486   0.1042   0.5751   0.0143
  -2.000  -0.8670   0.01031   0.00403   0.1057   0.5706   0.0158
  -1.500  -0.8203   0.00973   0.00342   0.1070   0.5657   0.0172
  -1.000  -0.7737   0.00913   0.00281   0.1083   0.5610   0.0196
  -0.500  -0.7265   0.00862   0.00230   0.1095   0.5575   0.0221
   0.000  -0.6790   0.00819   0.00186   0.1106   0.5533   0.0246
   0.500  -0.6317   0.00778   0.00145   0.1118   0.5487   0.0284
   1.000  -0.5843   0.00741   0.00111   0.1129   0.5437   0.0379
   1.500  -0.5382   0.00700   0.00089   0.1142   0.5407   0.0738
   2.000  -0.4972   0.00650   0.00086   0.1163   0.5368   0.1816
   2.500  -0.4857   0.00565   0.00125   0.1234   0.5329   0.4843
   3.000  -0.5611   0.00366   0.00003   0.1458   0.5296   0.6703
   3.500  -0.6431   0.00215  -0.00162   0.1704   0.5264   0.6862
   4.000  -0.5995   0.00328  -0.00010   0.1729   0.5232   0.7805
   5.500  -0.0524   0.02469   0.02119   0.1121   0.5065   0.8253
   6.000   0.0060   0.02441   0.02091   0.1112   0.5022   0.8267
   6.500   0.0600   0.02410   0.02059   0.1109   0.4974   0.8281
   7.000   0.1115   0.02387   0.02031   0.1110   0.4904   0.8295
   7.500   0.1612   0.02362   0.02010   0.1113   0.4862   0.8307
   8.000   0.2109   0.02337   0.01985   0.1116   0.4788   0.8313
   8.500   0.2624   0.02306   0.01955   0.1115   0.4697   0.8312
   9.000   0.3154   0.02278   0.01925   0.1110   0.4543   0.8307
   9.500   0.3687   0.02253   0.01899   0.1104   0.4393   0.8301
  10.000   0.4221   0.02236   0.01882   0.1096   0.4224   0.8295
  10.500   0.4768   0.02234   0.01878   0.1082   0.4007   0.8291
  11.000   0.5335   0.02251   0.01889   0.1060   0.3682   0.8283
  11.500   0.5952   0.02306   0.01933   0.1019   0.3212   0.8277
  12.000   0.6685   0.02444   0.02040   0.0936   0.2455   0.8269
  12.500   0.7520   0.02680   0.02230   0.0807   0.1489   0.8264
  13.000   0.8203   0.02885   0.02409   0.0717   0.0980   0.8260
  13.500   0.8735   0.03193   0.02686   0.0637   0.0452   0.8257
  14.000   0.8971   0.03446   0.02931   0.0628   0.0290   0.8252
  14.500   0.8942   0.03644   0.03134   0.0678   0.0262   0.8246
  15.000   0.8237   0.03830   0.03329   0.0851   0.0265   0.8241
