  
       XFOIL         Version 6.99
  
 Calculated polar for: windex1200 originalprofil                       
  
 1 1 Reynolds number fixed          Mach number fixed         
  
 xtrf =   1.000 (top)        1.000 (bottom)  
 Mach =   0.000     Re =     0.700 e 6     Ncrit =   9.000
  
   alpha    CL        CD       CDp       CM     Top_Xtr  Bot_Xtr
  ------ -------- --------- --------- -------- -------- --------
  -5.000   1.3206   0.04852   0.04392  -0.2687   0.6337   0.5780
  -4.500   1.3702   0.04887   0.04425  -0.2681   0.6284   0.5884
  -4.000   1.4179   0.04865   0.04403  -0.2669   0.6223   0.5913
  -3.500   1.4636   0.04870   0.04413  -0.2654   0.6172   0.5938
  -3.000   1.5038   0.04925   0.04477  -0.2630   0.6119   0.5972
  -2.500   1.5540   0.04984   0.04537  -0.2627   0.6058   0.6089
  -2.000   1.6005   0.04972   0.04523  -0.2612   0.5973   0.6103
  -1.500   1.6366   0.05055   0.04618  -0.2582   0.5910   0.6117
  -1.000   1.6721   0.05137   0.04707  -0.2550   0.5818   0.6136
  -0.500   1.7094   0.05213   0.04786  -0.2521   0.5705   0.6163
   0.000   1.7445   0.05322   0.04902  -0.2491   0.5578   0.6204
   0.500   1.7838   0.05458   0.05039  -0.2470   0.5410   0.6295
   1.000   1.8143   0.05583   0.05162  -0.2432   0.5216   0.6309
   1.500   1.8404   0.05742   0.05317  -0.2387   0.4982   0.6328
   2.000   1.8657   0.05913   0.05487  -0.2342   0.4732   0.6351
   2.500   1.8834   0.06168   0.05730  -0.2289   0.4293   0.6379
   3.000   1.8755   0.06677   0.06202  -0.2204   0.3550   0.6410
   3.500   1.8445   0.07527   0.07003  -0.2105   0.2658   0.6476
   4.000   1.8040   0.08476   0.07918  -0.2007   0.1901   0.6482
   4.500   1.7714   0.09395   0.08813  -0.1937   0.1303   0.6490
   5.000   1.7507   0.10190   0.09594  -0.1887   0.0882   0.6499
   5.500   1.7310   0.10980   0.10362  -0.1847   0.0462   0.6509
   6.000   1.7246   0.11598   0.10978  -0.1818   0.0298   0.6522
   6.500   1.7291   0.12079   0.11466  -0.1795   0.0247   0.6541
   7.000   1.7380   0.12504   0.11900  -0.1776   0.0225   0.6569
   7.500   1.7434   0.12999   0.12404  -0.1763   0.0208   0.6619
   8.000   1.7563   0.13395   0.12813  -0.1752   0.0198   0.6657
   8.500   1.7628   0.13821   0.13252  -0.1739   0.0189   0.6668
   9.000   1.7677   0.14263   0.13705  -0.1728   0.0180   0.6682
   9.500   1.7717   0.14715   0.14170  -0.1721   0.0171   0.6699
  10.000   1.7788   0.15133   0.14602  -0.1716   0.0167   0.6722
  10.500   1.7865   0.15540   0.15021  -0.1714   0.0161   0.6759
  11.000   1.7935   0.15979   0.15473  -0.1717   0.0157   0.6806
  11.500   1.7986   0.16394   0.15900  -0.1717   0.0152   0.6817
  12.000   1.8022   0.16816   0.16332  -0.1721   0.0147   0.6831
  12.500   1.8019   0.17285   0.16813  -0.1728   0.0142   0.6847
  13.000   1.8094   0.17652   0.17194  -0.1734   0.0139   0.6869
  13.500   1.8149   0.18048   0.17604  -0.1743   0.0136   0.6903
  14.000   1.8214   0.18420   0.17990  -0.1753   0.0133   0.6944
  14.500   1.8252   0.18818   0.18403  -0.1766   0.0129   0.6957
  15.000   1.8296   0.19200   0.18796  -0.1780   0.0125   0.6974
