  
       XFOIL         Version 6.99
  
 Calculated polar for: windex1200 originalprofil                       
  
 1 1 Reynolds number fixed          Mach number fixed         
  
 xtrf =   1.000 (top)        1.000 (bottom)  
 Mach =   0.000     Re =     1.500 e 6     Ncrit =   9.000
  
   alpha    CL        CD       CDp       CM     Top_Xtr  Bot_Xtr
  ------ -------- --------- --------- -------- -------- --------
  -5.000   1.7297   0.09365   0.09048  -0.2763   0.6053   0.5139
  -4.500   1.7677   0.09443   0.09125  -0.2739   0.5920   0.5216
  -4.000   1.8046   0.09531   0.09210  -0.2714   0.5769   0.5283
  -3.500   1.8293   0.09584   0.09256  -0.2669   0.5505   0.5316
  -3.000   1.8542   0.09640   0.09306  -0.2625   0.5292   0.5349
  -2.500   1.8779   0.09735   0.09397  -0.2580   0.5080   0.5384
  -2.000   1.9072   0.09995   0.09644  -0.2545   0.4764   0.5474
  -1.500   1.9083   0.10242   0.09862  -0.2469   0.4154   0.5495
  -1.000   1.8822   0.10761   0.10341  -0.2361   0.3307   0.5506
  -0.500   1.8477   0.11381   0.10925  -0.2255   0.2501   0.5515
   0.000   1.8131   0.12020   0.11531  -0.2163   0.1765   0.5523
   0.500   1.7881   0.12565   0.12050  -0.2091   0.1155   0.5533
   1.000   1.7758   0.12982   0.12455  -0.2036   0.0810   0.5543
   1.500   1.7630   0.13415   0.12871  -0.1988   0.0436   0.5555
   2.000   1.7602   0.13761   0.13212  -0.1949   0.0245   0.5572
   2.500   1.7677   0.14031   0.13482  -0.1918   0.0171   0.5605
   3.000   1.7843   0.14392   0.13846  -0.1903   0.0139   0.5698
   3.500   1.7934   0.14565   0.14027  -0.1871   0.0135   0.5708
   4.000   1.7995   0.14780   0.14250  -0.1841   0.0128   0.5716
   4.500   1.8079   0.14964   0.14442  -0.1812   0.0122   0.5725
   5.000   1.8126   0.15192   0.14676  -0.1785   0.0114   0.5734
   5.500   1.8196   0.15383   0.14876  -0.1759   0.0108   0.5744
   6.000   1.8221   0.15624   0.15128  -0.1735   0.0103   0.5757
   6.500   1.8274   0.15849   0.15365  -0.1714   0.0099   0.5775
   7.000   1.8348   0.16074   0.15598  -0.1697   0.0097   0.5803
   7.500   1.8521   0.16381   0.15913  -0.1695   0.0096   0.5902
   8.000   1.8554   0.16591   0.16135  -0.1677   0.0094   0.5911
   8.500   1.8594   0.16791   0.16344  -0.1660   0.0092   0.5920
   9.000   1.8630   0.16997   0.16560  -0.1646   0.0090   0.5928
   9.500   1.8659   0.17212   0.16784  -0.1634   0.0087   0.5938
  10.000   1.8698   0.17415   0.16996  -0.1622   0.0084   0.5950
  10.500   1.8711   0.17650   0.17242  -0.1615   0.0082   0.5964
  11.000   1.8737   0.17867   0.17468  -0.1609   0.0080   0.5982
  11.500   1.8741   0.18110   0.17722  -0.1606   0.0077   0.6004
  12.000   1.8778   0.18357   0.17977  -0.1607   0.0075   0.6047
  12.500   1.8803   0.18703   0.18335  -0.1621   0.0072   0.6114
  13.000   1.8736   0.19002   0.18648  -0.1629   0.0069   0.6122
  13.500   1.8647   0.19322   0.18983  -0.1642   0.0067   0.6129
  14.000   1.8597   0.19595   0.19270  -0.1653   0.0065   0.6138
  14.500   1.8582   0.19823   0.19509  -0.1662   0.0065   0.6148
  15.000   1.8611   0.19996   0.19691  -0.1666   0.0064   0.6161
